152.53.54.151:52251:DVSVkNKOYt:iBWhvah|94.252.74.156|Luxembourg|Luxembourg|Luxembourg|L-1341|Proximus Luxembourg S.A.|Black List: No|Use Type: Residential
152.53.171.242:26484|77.77.219.179|Bosnia and Herzegovina|Federation of Bosnia and Herzegovina|Sarajevo||TELEMACH BH|Black List: No|Use Type: Residential
152.53.171.242:10709|176.236.226.185|Türkiye|Kilis|Kilis|79000|Superonline Iletisim Hizmetleri A.S.|Black List: No|Use Type: Residential
152.53.171.242:45385|119.17.129.2|Australia|Victoria|Melbourne|3149|Aussie Broadband|Black List: No|Use Type: Residential
37.221.193.221:23441:DVSO0hZehI:AXsdC6B|180.150.80.118|Australia|Western Australia|Perth|6005|Aussie Broadband|Black List: No|Use Type: Residential
78.46.241.187:44947:DVSIpBjw6e:e35nhv|92.100.110.215|Russia|St.-Petersburg|St Petersburg|190990|Rostelecom networks|Black List: No|Use Type: Residential
152.53.171.242:59880|102.209.111.58|Uganda|Central Region|Kampala||Savanna Fibre|Black List: No|Use Type: Residential
208.84.102.79:18067:DVSfTTNue4:qmXrltj|122.168.35.87|India|Madhya Pradesh|Jabalpur|482008|BHARTI|Black List: No|Use Type: Residential
37.27.93.106:22622:a9Vv3l:QasgLH|88.129.112.55|Sweden|Västerbotten County|Nordmaling|914 33|AllTele|Black List: No|Use Type: Cellular
37.27.93.106:39797:izFi1X:jW7S9L|86.9.94.92|United Kingdom|England|Bath|BA2|Virgin Media|Black List: No|Use Type: Residential
65.108.251.40:58051|196.207.231.151|Senegal|Dakar|Dakar||SONATEL-AS Autonomous System|Black List: No|Use Type: Residential
65.108.251.40:54733|157.51.135.198|India|Tamil Nadu|Chennai|600039|Reliance Jio Infocomm Limited|Black List: No|Use Type: Residential
152.53.164.59:53982:uCpqzh:04dMYX|41.215.60.58|Kenya|Nairobi County|Nairobi|09831|ACCESSKENYA|Black List: No|Use Type: Residential
37.27.93.106:35181:5ah5H9:WflRpq|94.255.255.26|Sweden|Stockholm County|Stockholm|145 84|Bredband2 AB|Black List: No|Use Type: Residential
37.27.93.106:48876:ysqlPx:6X4y8p|83.255.9.170|Sweden|Stockholm County|Sollentuna|191 46|COMHEM|Black List: No|Use Type: Residential
37.27.93.106:28106:juVF57:7E4D82|151.177.51.152|Sweden|Stockholm County|Stockholm|175 43|Tele2 Sverige AB|Black List: No|Use Type: Residential
152.53.164.59:55093:NEu7Di:sTdZke|210.7.29.15|Fiji|Central|Suva||Connect Internet Services|Black List: No|Use Type: Residential
37.27.93.106:37072:x1gBYU:K7dD87|62.30.49.44|United Kingdom|England|Derby|DE1|Virgin Media Business|Black List: No|Use Type: Residential
37.27.93.106:18360:I2Trwc:00z7Y4|88.129.112.108|Sweden|Västerbotten County|Nordmaling|914 33|AllTele|Black List: No|Use Type: Cellular
37.27.93.106:33923:JM01uu:nF6q0N|61.245.140.55|Australia|Western Australia|Perth|6060|Aussie Broadband|Black List: No|Use Type: Residential
65.108.251.40:13415|37.61.117.133|Azerbaijan|Baku City|Baku||Baku Telephone Communication LLC|Black List: No|Use Type: Residential
65.108.251.40:45951|Unknown|Unknown|Unknown|Unknown|Unknown|Unknown|Black List: No|Use Type: Residential
65.108.251.40:38898|78.189.168.182|Turkey|Bursa Province|Bursa|16090|TTNet A.S.|Black List: No|Use Type: Residential
65.108.251.40:49223|90.154.71.85|Russia|Moscow|Moscow|123154|PJSC Rostelecom|Black List: No|Use Type: Residential
65.108.251.40:19636|170.244.49.16|Argentina|Buenos Aires|Saladillo|7260|Cooperativa Electrica De Saladillo|Black List: No|Use Type: Residential
65.108.251.40:33086|82.3.164.93|United Kingdom|England|Blyth|NE24|Virgin Media|Black List: No|Use Type: Residential
65.108.251.40:31937|200.225.131.99|Brazil|Rio Grande do Sul|Guaporé|99200|Valtemir José Frighetto|Black List: No|Use Type: Cellular
152.53.164.59:34801:AJkxV0:DX0hB1|65.191.166.10|United States|North Carolina|West End|27376|Charter Communications|Black List: No|Use Type: Residential
65.108.251.40:38891|185.92.138.176|Ukraine|Zaporizhzhia|Melitopol|72316|K-telekom LLC|Black List: No|Use Type: Residential
65.108.251.40:33138|92.210.197.129|Germany|North Rhine-Westphalia|Essen|45327|Vodafone GmbH|Black List: No|Use Type: Residential
65.108.251.40:36589|161.8.113.187|Oman|Muscat|Muscat|135|Awaser Oman LLC|Black List: No|Use Type: Residential
37.27.93.106:59628:MWEHK3:EjEP6Y|87.27.214.19|Italy|Lombardy|Milan|20121|Telecom Italia S.p.A. IPTV|Black List: No|Use Type: Residential
37.27.93.106:43437:kpCaeM:GG4ocn|2.192.118.14|Italy|Veneto|Rosolina|45010|Telecom Italia Mobile|Black List: No|Use Type: Cellular
152.53.164.59:24287:jDrbyX:e9tV4b|196.191.32.239|Ethiopia|Oromiya|Gelemso||Ethiotelecom|Black List: No|Use Type: Residential
37.27.93.106:25491:GBwMGF:FqKG9Y|86.3.54.160|United Kingdom|England|Corby|NN18|TalkTalk|Black List: No|Use Type: Residential
37.27.93.106:58118:8tPlAy:VA1fkG|194.103.81.67|Sweden|Stockholm County|Sundbyberg|174 64|Obenetwork AB|Black List: No|Use Type: Residential
152.53.164.59:20140:qwhA4W:1tIqlb|157.100.143.236|Ecuador|Pichincha|Quito||Telconet S.A|Black List: No|Use Type: Residential
37.27.93.106:24141:86FMQr:xHxpjl|157.131.164.154|United States|California|Brentwood|94513|Sonic Telecom LLC|Black List: No|Use Type: Residential
37.27.93.106:53147:xnalL2:mrPJsA|72.1.216.198|Canada|Ontario|Cornwall|K6H|Rogers Communications Canada Inc|Black List: No|Use Type: Residential
37.27.93.106:34396:Ffdbhh:tWqCYM|82.32.230.230|United Kingdom|Scotland|East Kilbride|G74|Virgin Media|Black List: No|Use Type: Residential
37.27.93.106:37692:qFxSqM:3Qqzmq|162.191.83.220|United States|Illinois|Chicago|60666|T-Mobile USA, Inc.|Black List: No|Use Type: Cellular
37.27.93.106:31878:IRvovq:Zr0ZvO|88.129.255.249|Sweden|Uppsala County|Uppsala|741 74|Bredband2 AB|Black List: No|Use Type: Residential
37.27.93.106:44499:RbbcgY:qKJYvZ|94.95.128.90|Italy|Lombardy|Milan|20122|Telecom Italia S.p.A.|Black List: No|Use Type: Residential
152.53.164.59:27905:x4DiNe:PZE75J|181.178.87.140|Panama|Provincia de Panamá|Panama City|07188|Cable & Wireless Panama|Black List: No|Use Type: Residential
152.53.164.59:35329:PYqHcV:W6IWb2|41.228.241.222|Tunisia|Tunis Governorate|Tunis||Ooredoo Tunisie SA|Black List: No|Use Type: Residential
37.27.93.106:17363:KjL5Fk:CzrkVi|Unknown|Unknown|Unknown|Unknown|Unknown|Unknown|Black List: No|Use Type: Residential
37.27.93.106:13515:4whAxr:7aujs6|73.167.96.17|United States|Massachusetts|Newton|02459|Comcast Cable Communications|Black List: No|Use Type: Residential
152.53.164.59:43876:iFm0za:2tM4aw|85.175.196.23|Russia|Krasnodar Krai|Krasnodar|350000|Rostelecom|Black List: No|Use Type: Residential
152.53.164.59:34049:tdrt2A:uEvCk5|129.232.127.1|Lesotho|Maseru District|Maseru||Econet Telecom Lesotho|Black List: No|Use Type: Residential
37.27.93.106:35816:ovFn0J:5KvlpT|50.190.139.137|United States|Texas|Houston|77063|Comcast Cable Communications, LLC|Black List: No|Use Type: Residential
37.27.93.106:26239:uraak2:HTc6jx|2.194.65.135|Italy|Lombardy|Milan|20122|Telecom Italia Mobile|Black List: No|Use Type: Cellular
37.27.93.106:27541:F6bzWP:DHpnvw|87.3.181.102|Italy|Abruzzo|Torrevecchia Teatina|66010|Telecom Italia S.p.A. TIN EASY LITE|Black List: No|Use Type: Residential
37.27.93.106:56588:pql4dv:KBaeWU|Unknown|Unknown|Unknown|Unknown|Unknown|Unknown|Black List: No|Use Type: Residential
37.27.93.106:37968:6sPa5k:VQX0c1|50.228.26.106|United States|Massachusetts|Quincy|02269|Comcast Cable Communications, LLC|Black List: No|Use Type: Residential
37.27.93.106:16301:sFBzZR:F5b3Br|27.123.111.94|India|National Capital Territory of Delhi|New Delhi|110002|Bharti Airtel|Black List: No|Use Type: Residential
37.27.93.106:26618:Dv2lja:N7d36Q|93.162.96.187|Denmark|Capital Region|Rødovre Municipality|2610|TDC Holding A/S|Black List: No|Use Type: Residential
152.53.164.59:30599:NSTbuA:PJeWDw|38.49.138.106|Mexico|Hidalgo|Apan|43900|Ientc S De RL De CV|Black List: No|Use Type: Residential
37.27.93.106:20632:59g2lA:5uwhKO|86.1.228.18|United Kingdom|England|Pontefract|WF9|TalkTalk|Black List: No|Use Type: Residential
37.27.93.106:57007:kJhfRo:pJZwtS|176.23.164.233|Denmark|South Denmark|Kolding|6000|TDC Holding A/S|Black List: No|Use Type: Residential
37.27.93.106:20525:I1MHAM:i1VSxc|87.140.7.186|Germany|Thuringia|Hetschburg|99438|Deutsche Telekom AG|Black List: No|Use Type: Residential
152.53.164.59:33806:BWzDcW:QYcCvV|167.57.68.88|Uruguay|Montevideo Department|Montevideo|11800|Administracion Nacional de Telecomunicaciones|Black List: No|Use Type: Residential
37.27.93.106:34838:dtQREK:oRV1dG|37.157.49.162|United Kingdom|England|Halifax|HX1|VoiceHost Ltd|Black List: No|Use Type: Residential
37.27.93.106:54130:ZZP5wq:bz6oIo|72.250.31.61|United States|Virginia|Ashburn|20149|T-Mobile USA, Inc.|Black List: No|Use Type: Cellular
37.27.93.106:30527:WrDBoz:ouJozf|51.52.106.230|United Kingdom|England|Greenwich|SE3|Gamma Telecom Holdings Ltd|Black List: No|Use Type: Residential
37.27.93.106:41872:MeOSFd:0GtnS5|188.177.12.66|Denmark|Capital Region|Copenhagen|2300|TDC Holding A/S|Black List: No|Use Type: Residential
37.27.93.106:50865:cUDbb2:qs3bkL|92.101.233.205|Russia|St.-Petersburg|St Petersburg|190990|PJSC Rostelecom|Black List: No|Use Type: Residential
37.27.93.106:51952:Y33EdQ:nD6Eid|92.27.60.225|United Kingdom|England|Hollinwood|M35|TalkTalk|Black List: No|Use Type: Residential
37.27.93.106:43586:IRuJ0S:ShA6Ng|91.8.110.93|Germany|North Rhine-Westphalia|Neuss|41469|Deutsche Telekom AG|Black List: No|Use Type: Residential
37.27.93.106:45340:CK4ia4:CAn5Bw|104.158.55.121|Canada|Ontario|Grimsby|L3M|Videotron Ltee|Black List: No|Use Type: Cellular
37.27.93.106:21874:j92bh9:uhMWZU|121.200.54.19|India|Tamil Nadu|Kangayam|638701|WLSNET|Black List: No|Use Type: Residential
37.27.93.106:20810:9q7Nin:5grOMJ|27.123.101.34|India|National Capital Territory of Delhi|New Delhi|110002|Bharti Airtel|Black List: No|Use Type: Residential
37.27.93.106:10010:xky0pz:sjXmrq|81.162.61.130|Russia|Rostov Oblast|Olginskaya||Bospor-Telecom LLC|Black List: No|Use Type: Residential
37.27.93.106:18216:TUTl6y:SycrWz|45.125.247.15|Australia|New South Wales|Sydney|2000|HostRoyale Technologies Pvt Ltd|Black List: No|Use Type: Residential
152.53.164.59:18439:MMOQlj:iyeprm|99.252.198.71|Canada|Ontario|Etobicoke|M9V|Rogers Communications Canada Inc.|Black List: No|Use Type: Residential
152.53.164.59:50365:in0SfX:Bb5jL5|189.28.80.244|Bolivia|Departamento de Cochabamba|Cochabamba||Telefónica Celular de Bolivia S.A.|Black List: No|Use Type: Residential
37.27.93.106:38487:SrnBYf:EpA1OV|31.45.151.200|Croatia|City of Zagreb|Zagreb|10000|Vipnet|Black List: No|Use Type: Residential
37.27.93.106:55207:9KqdZc:wpJkLg|80.233.100.74|Ireland|Leinster|Dublin|D17|H3G|Black List: No|Use Type: Residential
37.27.93.106:31768:dPdwKB:8T1ScI|84.184.103.222|Germany|North Rhine-Westphalia|Hagen|58097|Deutsche Telekom AG|Black List: No|Use Type: Residential
37.27.93.106:48938:6ulDdg:C7RFw7|46.247.112.219|United Kingdom|England|Knotty Ash|L14|Fluidone Ltd.|Black List: No|Use Type: Residential
37.27.93.106:19053:W3Bofo:3QszdM|103.156.237.37|India|Maharashtra|Thāne|400601|S S Infotainment Private Limited|Black List: No|Use Type: Residential
37.27.93.106:13316:bmylf3:OapuPJ|60.241.151.30|Australia|South Australia|Adelaide|5020|TPG Internet Pty Ltd|Black List: No|Use Type: Residential
37.27.93.106:26578:XP2VoB:60J5sV|198.251.57.4|Canada|Ontario|Toronto|M5V|Videotron Ltee|Black List: No|Use Type: Cellular
152.53.164.59:30289:hHrLlR:DIWoUO|109.151.29.194|United Kingdom|Northern Ireland|Whitehead|BT38|BT Public Internet Service|Black List: No|Use Type: Residential
37.27.93.106:10644:QPiRDU:q4Uftk|123.51.28.60|Australia|South Australia|Roxby Downs|5725|Telcoinabox Operations Pty Ltd|Black List: No|Use Type: Residential
152.53.164.59:27456:UugGoh:OKhJmV|46.60.48.170|Palestine|Jenin Governorate|Jenin||AL Zaytona Company For Communication Ltd.|Black List: No|Use Type: Residential
37.27.93.106:26201:HLGtyw:a2R1sq|46.122.12.19|Slovenia|Ljubljana|Ljubljana|1000|A1 Slovenija|Black List: No|Use Type: Residential
37.27.93.106:35775:THXzuU:30FRmS|217.92.37.124|Germany|Baden-Wurttemberg|Stuttgart|70173|Deutsche Telekom AG|Black List: No|Use Type: Residential
152.53.164.59:53408:CK3ZIG:J1sMqf|187.0.128.73|Brazil|Espírito Santo|Conceição da Barra|29960|Sator Engenharia Ltda|Black List: No|Use Type: Residential
37.27.93.106:21983:kJuWic:bJSu0w|86.3.56.208|United Kingdom|England|Corby|NN18|TalkTalk|Black List: No|Use Type: Residential
37.27.93.106:12407:4xOxai:W6Se1Y|120.157.38.190|Australia|South Australia|Adelaide|5007|Telstra Internet|Black List: No|Use Type: Residential
37.27.93.106:45370:ywODEy:eXvrfA|50.219.223.218|United States|Virginia|Pantops|22902|Comcast Cable Communications, LLC|Black List: No|Use Type: Residential
37.27.93.106:34860:wu1L9p:Cv4KXq|91.45.46.213|Germany|Brandenburg|Spremberg|03130|Deutsche Telekom AG|Black List: No|Use Type: Residential
37.27.93.106:25944:d2ojcb:SpRiiA|125.168.93.159|Australia|Queensland|Brisbane|4000|Vocus PTY LTD|Black List: No|Use Type: Residential
37.27.93.106:16092:I4dW4p:nYtv4h|87.174.176.37|Germany|North Rhine-Westphalia|Werdohl|58791|Deutsche Telekom AG|Black List: No|Use Type: Residential
152.53.164.59:10840:LSd79R:TJ8EHH|201.182.48.102|Brazil|Minas Gerais|Coronel Fabriciano|35170|Ultranet Network|Black List: No|Use Type: Residential
152.53.164.59:13555:c4RcDl:Jje0n5|176.168.227.180|France|Hauts-de-France|Beauvais|60000|BOUYGUES Telecom|Black List: No|Use Type: Residential
152.53.164.59:58773:6KZgOT:KhGFyw|Unknown|Unknown|Unknown|Unknown|Unknown|Unknown|Black List: No|Use Type: Residential
37.27.93.106:48871:bAQ8Dn:USSnWw|27.123.113.86|India|Karnataka|Bengaluru|560056|Bharti Airtel|Black List: No|Use Type: Residential
37.27.93.106:36676:mOL6EC:EB4a4u|84.112.197.242|Austria|Vienna|Vienna|1020|Liberty Global Operations B.V|Black List: No|Use Type: Residential
37.27.93.106:27723:DbTQMz:cvwR5p|104.158.49.106|Canada|Ontario|Grimsby|L3M|Videotron Ltee|Black List: No|Use Type: Cellular
37.27.93.106:53407:YmhQdC:vMHumz|223.236.89.86|India|Madhya Pradesh|Jabalpur|482001|Bharti Airtel Limited|Black List: No|Use Type: Residential
152.53.164.59:57507:1Ns2ni:aIObQb|78.183.105.86|Türkiye|Istanbul|Istanbul|34080|Turk Telekom|Black List: No|Use Type: Residential
37.27.93.106:55952:zUkCoP:jMOfQg|120.159.200.95|Australia|South Australia|Adelaide|5037|Telstra Internet|Black List: No|Use Type: Residential
152.53.164.59:39871:Y1Hoy1:gHKqDU|102.209.109.245|Uganda|Central Region|Kampala||Savanna Fibre Limited|Black List: No|Use Type: Residential
152.53.164.59:39017:AIrWzX:ZxXMX8|174.116.183.86|Canada|New Brunswick|Moncton|E1G|Rogers Communications Canada Inc.|Black List: No|Use Type: Residential
37.27.93.106:44873:mQYicH:4wRSC2|92.40.62.72|United Kingdom|England|Leicester|LE4|Hutchison 3G UK Ltd|Black List: No|Use Type: Residential
152.53.164.59:15644:7ahjIq:4XBQ4H|91.220.41.58|Iraq|Basra|Basra||Iraq Al-wataniyah Co. Telecom Services Ltd|Black List: No|Use Type: Residential
152.53.164.59:32760:3ACWAy:K5BWnU|103.156.4.43|Vietnam|Ho Chi Minh|Ho Chi Minh City|700000|MOBIFONEGIALAI|Black List: No|Use Type: Residential
152.53.164.59:34802:NiTliY:IROXA6|5.90.50.245|Italy|Emilia-Romagna|Reggio Emilia|42121|Vodafone|Black List: No|Use Type: Residential
152.53.164.59:54446:sGd6m8:kL8Ehv|94.175.86.70|United Kingdom|England|Cambridge|CB1|Virgin Media|Black List: No|Use Type: Residential
37.27.93.106:57433:yJMZp7:DgSf0G|106.205.70.43|India|Uttar Pradesh|Lucknow|226016|Bharti Airtel Limited|Black List: No|Use Type: Residential
37.27.93.106:28410:124Mqn:6OS5aW|92.29.27.122|United Kingdom|England|Honiton|EX14|TalkTalk|Black List: No|Use Type: Residential
37.27.93.106:41225:a1LZdx:Vrdmur|5.151.10.243|United Kingdom|England|Clevedon|BS21 5DG|Cablecom Networking|Black List: No|Use Type: Residential
37.27.93.106:42232:wBYEdZ:OE8MXe|72.1.216.200|Canada|Ontario|Cornwall|K6H|Rogers Communications Canada Inc|Black List: No|Use Type: Residential
152.53.164.59:32557:dvqAgs:W3pwZ6|45.178.0.85|Argentina|San Luis|San Luis|5700|AGENCIA DE CIENCIA, TECNOLOGIA Y SOCIEDAD SAN LUIS|Black List: No|Use Type: Residential
152.53.164.59:59682:aQAwyW:JS97Hn|190.171.112.226|Costa Rica|Provincia de San José|San José|10101|Telecable Economico S.A.|Black List: No|Use Type: Residential
37.27.93.106:27535:ypGs7K:AYebtz|198.251.60.243|Canada|Ontario|Toronto|M5V|Videotron Ltee|Black List: No|Use Type: Cellular
37.27.93.106:20453:HkKAGL:eKAx9F|Unknown|Unknown|Unknown|Unknown|Unknown|Unknown|Black List: No|Use Type: Residential
37.27.93.106:59217:0iUT2p:lee5dP|176.35.181.95|United Kingdom|England|Dudley|DY1|Wavenet Limited|Black List: No|Use Type: Residential
37.27.93.106:12556:nC1Zez:AxUzTg|82.71.49.171|United Kingdom|England|Mangotsfield|BS16|Zen Internet Ltd|Black List: No|Use Type: Residential
37.27.93.106:37109:5loJON:vJr2Pq|198.251.59.37|Canada|Ontario|Toronto|M5V|Videotron Ltee|Black List: No|Use Type: Cellular
37.27.93.106:45904:fORyKw:duQzu1|149.210.43.33|Greece|Peloponnese|Stoúpa||Cosmote Mobile Telecommunication S.A.|Black List: No|Use Type: Cellular
152.53.164.59:35565:nFjSYs:mFYEO2|80.244.28.4|Cyprus|Nicosia|Nicosia||Cablenet Communication Systems plc|Black List: No|Use Type: Residential
152.53.164.59:27049:uS3XtG:okh1tM|103.6.150.153|Singapore|North East|Singapore|560629|MYREPUBLIC|Black List: No|Use Type: Residential
152.53.164.59:40443:iaVKvz:ZRG6vw|91.245.43.104|Russia|Tatarstan Republic|Kazan'|422525|CJSC Telecommunications 21|Black List: No|Use Type: Residential
152.53.164.59:27326:4FlAmR:uWKUhp|93.138.211.229|Croatia|Split-Dalmatia County|Split|21000|Hrvatski Telekom d.d.|Black List: No|Use Type: Residential
152.53.164.59:14345:4NtTZF:ZSASOQ|196.207.222.208|Senegal|Dakar|Dakar||Sonatel|Black List: No|Use Type: Residential
37.27.93.106:12884:ZiLEia:xK87QY|73.171.251.82|United States|Florida|Jacksonville|32244|Comcast Cable Communications|Black List: No|Use Type: Residential
37.27.93.106:41072:GMWLmi:96vpT0|97.186.25.2|United States|Washington|Seattle|98103|Verizon Business|Black List: No|Use Type: Residential
37.27.93.106:44670:kH1ybp:CEOSkQ|198.251.57.52|Canada|Ontario|Toronto|M5B|Videotron Ltee|Black List: No|Use Type: Cellular
152.53.164.59:53230:nlVQhN:EfZbY4|190.97.237.75|Venezuela|Anzoátegui|El Tigre||Viginet C.A|Black List: No|Use Type: Residential
37.27.93.106:56229:UvLjtG:dM99XQ|131.106.180.67|United States|Maryland|Glen Burnie|21061|RCN|Black List: No|Use Type: Residential
152.53.164.59:29890:yxCzgW:47CHXD|Unknown|Unknown|Unknown|Unknown|Unknown|Unknown|Black List: No|Use Type: Residential
37.27.93.106:25698:BO0OTA:2FeuRD|99.210.238.152|Canada|Ontario|Toronto|M5V|Rogers Communications Canada Inc.|Black List: No|Use Type: Residential
152.53.164.59:33398:2VmVpB:YjWF4U|113.255.48.178|Hong Kong|Sai Kung District|Tseung Kwan O||HGC Global Communications Limited|Black List: No|Use Type: Residential
152.53.164.59:23260:LO3msS:V1BR56|45.177.30.166|Brazil|Pernambuco|Recife|50010|iderson rafael pereira da silva|Black List: No|Use Type: Residential
152.53.164.59:56297:JnRDyr:SysC6t|84.149.86.181|Germany|Baden-Wurttemberg|Graben-Neudorf|76676|Deutsche Telekom AG|Black List: No|Use Type: Residential
37.27.93.106:52438:EObMku:cFYNjN|173.228.25.62|United States|California|Santa Rosa|95403|Sonic Telecom LLC|Black List: No|Use Type: Residential
37.27.93.106:25836:x5XGxM:eq01E1|213.100.139.187|Estonia|Harjumaa|Tallinn||Tele2 Sverige AB|Black List: No|Use Type: Residential
152.53.164.59:25687:23A7lV:V6s0rj|168.195.194.185|Brazil|Mato Grosso|Chapada dos Guimarães|78195|BRASIL TECPAR | AMIGO | AVATO|Black List: No|Use Type: Residential
37.27.93.106:40206:cn0p5X:UrLUKK|198.251.57.178|Canada|Ontario|Toronto|M5B|Videotron Ltee|Black List: No|Use Type: Cellular
37.27.93.106:39119:8MfsME:81KQa5|104.158.55.1|Canada|Ontario|Grimsby|L3M|Videotron Ltee|Black List: No|Use Type: Cellular
37.27.93.106:39813:L9rjNP:n4XAiR|68.199.46.25|United States|New York|Brooklyn|11225|Cablevision Systems Corp.|Black List: No|Use Type: Residential
37.27.93.106:11453:lmCLDl:VTVKSk|50.188.204.213|United States|New Jersey|Linden|07036|Comcast Cable Communications, LLC|Black List: No|Use Type: Residential
37.27.93.106:43647:v7ky4W:Bckg75|27.123.101.202|India|National Capital Territory of Delhi|New Delhi|110002|Bharti Airtel|Black List: No|Use Type: Residential
37.27.93.106:48275:CxGi9C:q4qxzy|95.251.232.242|Italy|Lazio|Rome|00135|Telecom Italia S.p.A|Black List: No|Use Type: Residential
37.27.93.106:36199:g5ioKQ:pksNVv|185.161.251.104|Germany|Hesse|Frankfurt am Main|60313|Global Connectivity Solutions LLP|Black List: No|Use Type: Residential
37.27.93.106:36280:71NvxA:RKXePd|107.80.220.155|United States|Texas|Corpus Christi|78413|AT&T Enterprises, LLC|Black List: No|Use Type: Residential
37.27.93.106:12335:FjYOnk:osemzm|198.251.57.64|Canada|Ontario|Toronto|M5V|Videotron Ltee|Black List: No|Use Type: Cellular
37.27.93.106:47283:ceBt4t:vb3NdS|27.123.111.30|India|National Capital Territory of Delhi|New Delhi|110002|Bharti Airtel|Black List: No|Use Type: Residential
37.27.93.106:31249:8Bh3Qc:QFdD7Q|162.212.28.72|United States|Arkansas|Hot Springs|71913|Wireless Etc Inc.|Black List: No|Use Type: Cellular
37.27.93.106:24647:saUAkC:PmEY8d|90.138.64.175|Lithuania|Vilnius|Vilnius|04007|TELE2/ SWIPNET|Black List: No|Use Type: Residential
37.27.93.106:38308:F3IjYL:lpQvzY|87.115.54.248|United Kingdom|England|City of Westminster|SW1V|PlusNet plc.|Black List: No|Use Type: Residential
37.27.93.106:27023:7jNvei:xO79HL|195.223.144.146|Italy|Emilia-Romagna|Modena|41126|Telecom Italia S.p.A.|Black List: No|Use Type: Residential
152.53.164.59:44814:5J2uRD:Bs2XAw|85.113.123.253|Palestine|Ramallah and al-Bireh Governorate|Ramallah||Hadara ADSL-Pools-R2|Black List: No|Use Type: Residential
152.53.164.59:17039:KpVPyk:BTpvwg|37.76.221.220|Palestinian Territory|West Bank|Nablus||Cronos-Block1|Black List: No|Use Type: Residential
37.27.93.106:36011:wPos1A:ygRm7U|99.179.52.50|United States|Missouri|St Louis|63146|AT&T Enterprises, LLC|Black List: No|Use Type: Residential
152.53.164.59:57182:6hMtTx:T4FMQN|102.141.54.137|Congo Republic|Sangha|Pointe Noire||GVA Cote d'Ivoire SAS|Black List: No|Use Type: Residential
37.27.93.106:40895:fiC1H8:hJn2jj|88.213.208.199|Bulgaria|Shumen|Varbitsa|9870|NETBOX Boramax|Black List: No|Use Type: Residential
37.27.93.106:12183:IM4vKK:mnFmwn|150.242.223.122|United States|Iowa|Humboldt|50548|Goldfield Telephone Company, LLC|Black List: No|Use Type: Residential
37.27.93.106:14881:mklrPr:eGMY0m|2.229.200.226|Italy|Lombardy|Milan|20145|Fastweb SpA|Black List: No|Use Type: Residential
37.27.93.106:25419:hNoEU5:Q6vPEy|178.132.107.89|France|Île-de-France|Paris|75001|PacketHub S.A.|Black List: No|Use Type: Residential
37.27.93.106:37030:N80oze:2Zl7sg|95.209.141.145|Sweden|Stockholm County|Johanneshov|121 00|Hi3G Access AB|Black List: No|Use Type: Residential
37.27.93.106:17218:gBdWdi:RBJPg0|104.158.65.12|Canada|Quebec|Saint-Didace|J0K|Videotron Ltee|Black List: No|Use Type: Cellular
37.27.93.106:48383:UlSpFu:AdC3gR|90.232.190.137|Sweden|Västra Götaland County|Falköping|521 40|Telia Company AB|Black List: No|Use Type: Residential
37.27.93.106:55378:hcv69y:vJE9z1|213.100.190.217|Lithuania|Vilnius|Vilnius|04007|Tele2 Sverige AB|Black List: No|Use Type: Residential
37.27.93.106:17869:VVtXG9:wddmeD|2.34.238.163|Italy|Emilia-Romagna|Ravenna|48100|VODAFONE|Black List: No|Use Type: Residential
37.27.93.106:25364:ByYD2R:sIskCw|140.186.29.154|United States|North Dakota|Fargo|58103|Midcontinent Communications|Black List: No|Use Type: Residential
37.27.93.106:25233:P5qTvM:jysiDB|128.185.12.179|India|Karnataka|Bengaluru|560056|Bharti Airtel Limited|Black List: No|Use Type: Residential
152.53.164.59:27040:3N5Un1:E88MJo|36.73.35.49|Indonesia|Central Java|Purbalingga|53313|PT. TELKOM INDONESIA|Black List: No|Use Type: Residential
152.53.164.59:38061:SNxPs8:ceAemq|186.35.211.8|Chile|Santiago Metropolitan|Melipilla||Telmex Servicios Empresariales S.A.|Black List: No|Use Type: Residential
37.27.93.106:42056:OYeWo8:TPiu7I|217.149.125.18|Norway|Vestland|Florø|6900|ENIVEST|Black List: No|Use Type: Residential
37.27.93.106:29094:FSrAoR:sy02q0|185.139.50.11|Italy|Basilicate|Brienza|85050|Roberto Cardone trading as Megacom|Black List: No|Use Type: Residential
37.27.93.106:47760:2iohGT:w0drLk|68.199.126.200|United States|New York|Croton-on-Hudson|10520|Cablevision Systems Corp.|Black List: No|Use Type: Residential
37.27.93.106:51946:5usTvt:eS1Jng|104.158.48.174|Canada|Ontario|Grimsby|L3M|Videotron Ltee|Black List: No|Use Type: Cellular
37.27.93.106:44015:x6OxSw:YVkcwp|95.183.52.29|Switzerland|Zurich|Zurich|8048|Solar Communications GmbH|Black List: No|Use Type: Residential
152.53.164.59:20092:Jno7Xj:YG8Fcf|92.170.19.216|France|Île-de-France|Paris|75012|Orange|Black List: No|Use Type: Residential
37.27.93.106:57210:a20dUU:aeYWqm|117.247.16.24|India|Karnataka|Hubballi|580023|BSNL Internet|Black List: No|Use Type: Residential
37.27.93.106:59046:ZV2qnQ:DfV7IF|115.110.170.200|India|Karnataka|Cox Town|560005|Tata Communications Limited|Black List: No|Use Type: Residential
37.27.93.106:22736:noRGAK:Ok1R2v|83.40.204.56|Spain|Catalonia|Sabadell|08202|Telefonica de Espana SAU|Black List: No|Use Type: Residential
37.27.93.106:12449:UwK97d:2FKrPh|24.103.197.190|United States|New York|Brockport|14420|Charter Communications Inc|Black List: No|Use Type: Residential
37.27.93.106:39929:NCTQw6:zMZtjL|47.45.82.15|United States|California|San Luis Obispo|93401|Charter Communications|Black List: No|Use Type: Residential
37.27.93.106:17936:wxZYti:3yRTYy|125.20.230.102|India|Uttar Pradesh|Noida|110091|BHARTI|Black List: No|Use Type: Residential
37.27.93.106:34125:adcAR5:p401Zw|77.81.31.161|Romania|București|Bucharest|012244|UPC Romania|Black List: No|Use Type: Residential
37.27.93.106:20977:rBC8oV:2rhU4g|79.43.196.147|Italy|Tuscany|Lucca|55100|INTERBUSINESS|Black List: No|Use Type: Residential
37.27.93.106:47229:ElK6Wz:FDw22R|184.179.23.193|United States|Louisiana|Baton Rouge|70810|Cox Communications Inc.|Black List: No|Use Type: Residential
37.27.93.106:45571:AfXmKy:qQCJkz|27.123.104.42|India|National Capital Territory of Delhi|New Delhi|110002|Bharti Airtel|Black List: No|Use Type: Residential
152.53.164.59:10404:a4aAOp:MAv9IB|88.0.129.158|Spain|Castille-La Mancha|Toledo|45005|Telefonica de Espana SAU|Black List: No|Use Type: Residential
152.53.164.59:22109:25rCQb:yPx39u|187.2.213.135|Brazil|São Paulo|Taubaté|12000|Claro NXT Telecomunicacoes Ltda|Black List: No|Use Type: Residential
152.53.164.59:45264:oXGrFg:vQm8hw|80.187.68.24|Germany|Baden-Wurttemberg|Güglingen|74363|T-Mobile Deutschland GmbH|Black List: No|Use Type: Cellular
37.27.93.106:21373:JnWwf1:zVq0MY|79.213.126.234|Germany|Saxony|Oelsnitz|08606|Deutsche Telekom AG|Black List: No|Use Type: Residential
152.53.164.59:11858:1Ysd2B:GAYIs7|191.37.218.240|Brazil|Rondônia|Jaru|76890|UNI TELECOM LTDA|Black List: No|Use Type: Residential
37.27.93.106:22438:pXsORS:mFpRki|79.229.206.85|Germany|City state Bremen|Bremen|28199|Deutsche Telekom AG|Black List: No|Use Type: Residential
152.53.164.59:22308:FRn7ZD:d3n4rN|41.44.211.78|Egypt|Alexandria|Alexandria||TE Data|Black List: No|Use Type: Residential
37.27.93.106:53267:z2DD4S:fKqWAR|Unknown|Unknown|Unknown|Unknown|Unknown|Unknown|Black List: No|Use Type: Residential
37.27.93.106:57304:tEhAnf:2zrsIY|104.158.62.153|Canada|Ontario|Grimsby|L3M|Videotron Ltee|Black List: No|Use Type: Cellular
37.27.93.106:51573:atJ1Y6:Psxt2q|182.95.222.202|India|Haryana|Gurugram||Genpact India 4th Floor|Black List: No|Use Type: Residential
37.27.93.106:59989:9sa2aJ:zGkV4e|81.43.11.126|Spain|Extremadura|Cáceres|10004|Telefonica de Espana SAU|Black List: No|Use Type: Residential
37.27.93.106:22713:gGIceP:jsvbZo|103.224.34.105|India|Tamil Nadu|Coimbatore|641004|Readylink Communication and Services|Black List: No|Use Type: Residential
37.27.93.106:48196:uU4WfL:Ern6UQ|128.185.192.82|India|Uttar Pradesh|Noida|110091|Bharti Airtel Limited|Black List: No|Use Type: Residential
37.27.93.106:39723:rCUF0E:6Z3aPO|50.217.40.11|United States|Illinois|Chicago|60647|Comcast Cable Communications, LLC|Black List: No|Use Type: Residential
37.27.93.106:17127:QS2l1Z:UQAVi9|90.140.12.199|Lithuania|Vilnius|Vilnius|04007|TELE2/ SWIPNET|Black List: No|Use Type: Residential
37.27.93.106:56260:vnldgv:QqAL8u|213.45.77.60|Italy|Emilia-Romagna|Ravenna|48100|Telecom Italia S.p.A.|Black List: No|Use Type: Residential
37.27.93.106:12410:ZmZ3B9:2GuaDB|198.251.59.189|Canada|Ontario|Toronto|M6H|Videotron Ltee|Black List: No|Use Type: Cellular
152.53.164.59:46934:km3AZK:aUMRSW|71.57.213.43|United States|Virginia|South Boston|24592|Comcast Cable Communications|Black List: No|Use Type: Residential
152.53.164.59:41278:xLsXpN:809wRu|190.143.252.143|Nicaragua|Managua Department|Managua||Telefonia Celular de Nicaragua SA.|Black List: No|Use Type: Residential
152.53.164.59:55994:rk0dhU:BWrHJJ|79.117.228.24|Spain|Andalusia|Almería|04009|Digi Spain Telecom S.L.U.|Black List: No|Use Type: Residential
37.27.93.106:53543:Ik5tMe:UeNTc8|82.54.92.244|Italy|Campania|San Cipriano d'Aversa|81036|Telecom Italia S.p.A. TIN EASY LITE|Black List: No|Use Type: Residential
37.27.93.106:22903:vUk4h9:6cbFHV|83.254.254.247|Sweden|Östergötland County|Motala|591 27|COMHEM|Black List: No|Use Type: Residential
37.27.93.106:52613:0Rk9Op:KUW7ma|117.252.65.5|India|Karnataka|Mysuru|570026|BSNL Internet|Black List: No|Use Type: Residential
37.27.93.106:20276:q09RIc:Ppa4hS|24.6.146.118|United States|California|Sunnyvale|94089|Comcast Cable Communications, LLC|Black List: No|Use Type: Residential
152.53.164.59:43134:D6FX2l:1PKVLi|174.60.7.239|United States|Pennsylvania|York|17404|Comcast Cable Communications, LLC|Black List: No|Use Type: Residential
37.27.93.106:49432:xTh59z:TCxryp|38.244.162.165|Germany|Hesse|Frankfurt am Main|60313|Leaseweb Deutschland GmbH|Black List: No|Use Type: Residential
37.27.93.106:18634:69lyiA:Uu6guS|71.27.124.237|United States|California|Elk Grove|95757|Comcast Cable Communications, LLC|Black List: No|Use Type: Residential
152.53.164.59:41863:D1EioA:8zLXia|152.58.0.30|India|Maharashtra|Mumbai|400012|Reliance Jio Infocomm Limited|Black List: No|Use Type: Residential
37.27.93.106:15734:ntewZv:82ebs9|86.207.2.96|France|Auvergne-Rhône-Alpes|Lyon|69201|France Telecom|Black List: No|Use Type: Residential
37.27.93.106:18516:9D7uYb:2OzLZr|185.139.51.45|Italy|Basilicate|Brienza|85050|Roberto Cardone trading as Megacom|Black List: No|Use Type: Residential
152.53.164.59:38008:08N8Bv:DUOD7N|103.176.94.39|Indonesia|Riau|Pangkalan Kasai||PT Mitra Internet Indonesia|Black List: No|Use Type: Residential
37.27.93.106:22104:Fuz2Fb:hiCMQX|78.141.39.69|United Kingdom|England|Spalding|PE11|Wavenet Limited|Black List: No|Use Type: Residential
37.27.93.106:11029:tbR1Gt:azEBS6|104.158.50.174|Canada|Ontario|Grimsby|L3M|Videotron Ltee|Black List: No|Use Type: Cellular
37.27.93.106:31703:yTLW9S:GUSGWz|157.20.228.20|India|Uttar Pradesh|Agra|282001|Windnet Pvt Ltd|Black List: No|Use Type: Residential
37.27.93.106:14147:Yd2C3C:VuNtIk|124.123.93.60|India|Telangana|Hyderabad|500034|Atria Convergence Technologies Pvt. Ltd.|Black List: No|Use Type: Residential
37.27.93.106:53692:BdQeq0:nWoGcm|136.175.64.76|United States|Pennsylvania|Lewistown|17044|Mifflin County Wireless LLC|Black List: No|Use Type: Cellular
37.27.93.106:37535:o2nDXh:nK2EZ3|198.251.59.171|Canada|Ontario|Toronto|M5R|Videotron Ltee|Black List: No|Use Type: Cellular
37.27.93.106:29230:4xsrdK:m1Dh3n|104.158.34.62|Canada|Ontario|Toronto|M5R|Videotron Ltee|Black List: No|Use Type: Cellular
37.27.93.106:46208:UCgNBM:snl7rS|212.210.32.252|Italy|Campania|Alvignano|81012|INTERBUSINESS|Black List: No|Use Type: Residential
37.27.93.106:22490:Yypbjl:RKPCPn|94.85.218.194|Italy|Lombardy|Sedriano|20018|INTERBUSINESS|Black List: No|Use Type: Residential
37.27.93.106:16807:2Rpu6e:CU23ia|117.198.97.41|India|Karnataka|Bengaluru|562130|Bharat Sanchar Nigam Ltd|Black List: No|Use Type: Residential
37.27.93.106:46336:Y9NVvf:7X7pQK|112.196.37.138|India|Chandigarh|Chandigarh|140603|Hfcl Infotel LTD|Black List: No|Use Type: Residential
37.27.93.106:36373:Fnicu2:zRTdrF|68.146.130.33|Canada|Alberta|Calgary|T2J|Shaw Communications Inc.|Black List: No|Use Type: Residential
152.53.164.59:41345:IasCG3:F8ZIAj|68.33.115.253|United States|District of Columbia|Washington|20019|Comcast Cable Communications, LLC|Black List: No|Use Type: Residential
152.53.164.59:58158:OSD4hr:w4IOf7|38.196.241.130|Venezuela|Estado Trujillo|Valera|3101|HOLANET, C.A.|Black List: No|Use Type: Residential
152.53.164.59:44065:4lXXBa:iDniE3|37.107.13.182|Saudi Arabia|Medina Region|Medina||Saudinet|Black List: No|Use Type: Residential
152.53.164.59:30923:hKOg2A:OwB5YE|38.199.29.54|Colombia|Cundinamarca|Girardot City|252431|Conexion Comercializacion De Servicios De Telecomunicaciones Empalmeria Y Constr|Black List: No|Use Type: Residential
152.53.164.59:11903:cd3VLV:F93KRF|93.157.175.98|Russia|Moscow Oblast|Dzerzhinskiy|140093|AVK-Wellcom Ltd.|Black List: No|Use Type: Residential
152.53.164.59:29684:75Ajd1:xPSdbo|80.142.210.142|Germany|Bavaria|Munich|80997|Deutsche Telekom AG|Black List: No|Use Type: Residential
152.53.164.59:23754:3LHVwL:E02ZHM|121.153.130.193|South Korea|Daejeon|Daejeon|35242|Korea Telecom|Black List: No|Use Type: Residential
37.27.93.106:52465:xhLAA1:6ouMoo|99.251.159.64|Canada|Ontario|Kitchener|N2M|Rogers Communications Canada Inc.|Black List: No|Use Type: Residential
37.27.93.106:30617:LIzniv:3lvoH9|37.83.110.193|Germany|Baden-Wurttemberg|Wendlingen am Neckar|73240|Telekom Deutschland GmbH|Black List: No|Use Type: Residential
37.27.93.106:22829:EqnPCD:iWOQHm|91.56.253.248|Germany|Bavaria|Munich|81476|Deutsche Telekom AG|Black List: No|Use Type: Residential
37.27.93.106:56099:CD3fDI:FQumBO|79.221.167.127|Germany|Lower Saxony|Goslar|38642|Deutsche Telekom AG|Black List: No|Use Type: Residential
152.53.164.59:20340:VKE7eA:3x66Dw|178.51.35.227|Belgium|Brussels Capital|Brussels|1210|Orange Belgium SA|Black List: No|Use Type: Residential
37.27.93.106:48135:SUh70v:pQhnux|82.121.154.238|France|Île-de-France|Deuil-la-Barre|95170|France Telecom|Black List: No|Use Type: Residential
37.27.93.106:15368:tkOn4i:jUFlJV|81.242.132.189|Belgium|Brussels Capital|Brussels|1000|Proximus|Black List: No|Use Type: Residential
37.27.93.106:47896:Ldz1My:x1ndw9|210.10.133.174|Australia|New South Wales|Liverpool|2170|AAPT Limited|Black List: No|Use Type: Residential
37.27.93.106:46203:PHU6Vw:qMB4dh|87.176.148.144|Germany|Bavaria|Landshut|84028|Deutsche Telekom AG|Black List: No|Use Type: Residential
37.27.93.106:24112:vYCRKQ:vmG5wy|188.151.141.203|Sweden|Skåne County|Malmo|211 18|TELE2-BROADBAND|Black List: No|Use Type: Residential
37.27.93.106:25895:BbYuzj:vOLNs6|117.205.234.116|India|Karnataka|Bengaluru|562130|BSNL Internet|Black List: No|Use Type: Residential
37.27.93.106:26980:HNWZre:UXkp0d|2.44.92.20|Italy|Piedmont|Turin|10141|Vodafone|Black List: No|Use Type: Residential
37.27.93.106:58171:5y9Gc8:uVtA66|78.99.15.180|Slovakia|Trnava Region|Trnava|917 01|Slovak Telecom AS6855|Black List: No|Use Type: Residential
37.27.93.106:17374:YlDUHr:GzKgqG|94.225.128.79|Belgium|Flanders|Merchtem|1785|Telenet N.V.|Black List: No|Use Type: Residential
37.27.93.106:53211:2P7GTn:adibm8|92.136.210.22|France|Occitanie|Carmaux|81400|France Telecom Orange|Black List: No|Use Type: Residential
37.27.93.106:11162:nvDyQu:3zSyRA|2.194.66.237|Italy|Lombardy|Milan|20122|Telecom Italia Mobile|Black List: No|Use Type: Cellular
37.27.93.106:16614:Iqn0UX:Q7wxnf|69.79.104.45|Puerto Rico|Fajardo|Luquillo|00773|Columbus Networks USA|Black List: No|Use Type: Residential
37.27.93.106:39794:iUsHBb:Wv0IAN|75.38.53.5|United States|North Carolina|Winston-Salem|27127|AT&T Enterprises, LLC|Black List: No|Use Type: Residential
37.27.93.106:58609:lMjRnT:9E0zGj|98.147.233.2|United States|California|Santa Monica|90403|Spectrum|Black List: No|Use Type: Residential
37.27.93.106:31626:nCrYFG:WntzV2|75.80.65.214|United States|Hawaii|Kahului|96732|Spectrum|Black List: No|Use Type: Residential
152.53.164.59:56901:MR3mN1:kHgnnr|143.105.152.49|Cameroon|Centre|Yaoundé||SpaceX Starlink|Black List: No|Use Type: Residential
152.53.164.59:59744:bol9Hn:egAJZD|160.176.82.162|Morocco|Rabat-Salé-Kénitra|Sidi Yahia El Gharb||Office National des Postes et Telecommunications ONPT (Maroc Telecom) / IAM|Black List: No|Use Type: Residential
152.53.164.59:21506:ickZXL:isXROq|190.108.12.72|Uruguay|Montevideo Department|Montevideo|11400|Tecnowind S.A.|Black List: No|Use Type: Residential
152.53.164.59:34167:ZjvFQ9:yffWcY|221.140.40.107|South Korea|Gyeonggi-do|Goyang-si|105|SK Broadband Co Ltd|Black List: No|Use Type: Residential
37.27.93.106:33406:WKsufb:k7PEZ2|212.88.227.236|Belgium|Flanders|Antwerp|2018|Telenet BV|Black List: No|Use Type: Residential
152.53.164.59:25336:H6i7GV:Wsx84q|121.124.159.87|South Korea|Seoul|Gangseo-gu|075|SK Broadband Co Ltd|Black List: No|Use Type: Residential
37.27.93.106:23940:a1S7Un:uj7f8r|87.128.46.105|Germany|State of Berlin|Berlin|10178|Deutsche Telekom AG|Black List: No|Use Type: Residential
37.27.93.106:25832:VbZLXp:iGOQn2|80.208.55.21|Denmark|Central Jutland|Gjern|8883|FIBIA P/S|Black List: No|Use Type: Residential
37.27.93.106:53019:Pe5qe3:svxDCR|92.134.140.62|France|Nouvelle-Aquitaine|Dax|40100|France Telecom Orange|Black List: No|Use Type: Residential
37.27.93.106:45011:PgcBm9:LZAX7b|184.23.46.168|United States|California|Hayward|94545|Sonic Telecom LLC|Black List: No|Use Type: Residential
37.27.93.106:31795:kWnITq:HKiJce|203.174.182.38|Australia|South Australia|Adelaide|5000|TPG Internet Pty Ltd|Black List: No|Use Type: Residential
152.53.164.59:16933:QuxbvO:7Zkvdq|179.63.118.54|Brazil|São Paulo|São Paulo|01000|Noova Tecnologia EM Telecomunicacao Ltda|Black List: No|Use Type: Residential
152.53.164.59:13115:5qxODq:VjVR5A|190.31.75.177|Argentina|Tucuman|San Miguel de Tucumán|4000|Telecom Argentina S.A.|Black List: No|Use Type: Residential
37.27.93.106:47539:xsqDLr:e4w7R5|91.200.119.185|Spain|Basque Country|Zubieta|20170|Instal Matel SL|Black List: No|Use Type: Residential
37.27.93.106:59418:c4QJGx:jZHfsm|79.152.143.160|Spain|Catalonia|Barcelona|08015|RIMA (Red IP Multi Acceso)|Black List: No|Use Type: Residential
37.27.93.106:31684:yct2e7:lMMukc|37.203.164.123|United Kingdom|England|Clevedon|BS21 6FT|Glide Student & Residential Limited|Black List: No|Use Type: Residential
37.27.93.106:18947:TYltcb:jQJXd4|109.170.173.157|United Kingdom|England|Cranbrook|TN17|Wavenet Limited|Black List: No|Use Type: Residential
37.27.93.106:19336:dxnPzg:rMUORU|176.35.189.138|United Kingdom|England|Dudley|DY1|Wavenet Limited|Black List: No|Use Type: Residential
37.27.93.106:20149:CG2ZWy:nDgXgu|90.216.126.64|United Kingdom|England|Bournemouth|BH10|Sky UK Limited|Black List: No|Use Type: Residential
152.53.164.59:18746:vaHF8N:ccNOIi|73.151.33.211|United States|California|Fresno|93730|Comcast Cable Communications|Black List: No|Use Type: Residential
37.27.93.106:29532:Gwh2LD:KfzWWx|60.240.245.66|Australia|Victoria|Melbourne|3141|TPG Internet Pty Ltd|Black List: No|Use Type: Residential
37.27.93.106:29039:AI60ro:6LsbQH|185.139.50.95|Italy|Basilicate|Brienza|85050|Roberto Cardone trading as Megacom|Black List: No|Use Type: Residential
37.27.93.106:48595:G26wTE:rzrwne|24.102.183.67|United States|Pennsylvania|Stroudsburg|18360|PenTeleData Inc.|Black List: No|Use Type: Residential
37.27.93.106:23703:HznRgt:LoLewO|185.139.50.15|Italy|Basilicate|Brienza|85050|Roberto Cardone trading as Megacom|Black List: No|Use Type: Residential
37.27.93.106:55889:NEtxNJ:u9o7kE|2.45.220.150|Italy|Lazio|Rome|00135|VODAFONE|Black List: No|Use Type: Residential
37.27.93.106:28814:hhLt4V:CeasJy|185.197.8.247|Italy|Basilicate|Ruoti|85056|Chorotech s.r.l|Black List: No|Use Type: Residential
37.27.93.106:44550:2EQT9y:2sdHB8|185.139.48.71|Italy|Basilicate|Viggiano|85059|MEGACOM|Black List: No|Use Type: Residential
37.27.93.106:37090:7RZPbq:BrZMCW|5.59.249.215|Italy|Lazio|Pomezia|00071|Cinzia Tocci trading as C1V|Black List: No|Use Type: Residential
37.27.93.106:13006:uHIs2U:Uv4oTN|185.139.48.221|Italy|Basilicate|Viggiano|85059|Fastweb SpA|Black List: No|Use Type: Residential
37.27.93.106:13210:sQulAb:CW6Svn|5.94.3.37|Italy|Lombardy|Milan|20141|Vodafone|Black List: No|Use Type: Residential
37.27.93.106:29887:BG1CQX:QEgIXk|185.139.48.253|Italy|Basilicate|Viggiano|85059|Fastweb SpA|Black List: No|Use Type: Residential
152.53.164.59:25828:7RZTua:3NOMYF|72.77.28.185|United States|Pennsylvania|Pittsburgh|15243|Verizon Business|Black List: No|Use Type: Residential
37.27.93.106:44410:QverHt:gOUU2G|185.15.171.6|Italy|Basilicate|Picerno|85055|Metis S.R.L|Black List: No|Use Type: Residential
37.27.93.106:29567:her05r:xv6r5F|220.245.239.48|Australia|Queensland|Brisbane|4131|TPG Internet Pty Ltd|Black List: No|Use Type: Residential
37.27.93.106:39700:rH0XiF:7QcXp5|124.168.124.220|Australia|New South Wales|Sydney|2137|TPG Internet Pty Ltd|Black List: No|Use Type: Residential
152.53.171.242:32961|177.24.45.156|Brazil|São Paulo|São Paulo|01000|Vivo|Black List: No|Use Type: Residential
188.245.189.170:35402:DVS4sGSrMu:F2oj4N|200.232.114.71|Brazil|São Paulo|São Paulo|01000|Vivo|Black List: No|Use Type: Residential
208.84.102.79:20100:DVS8s3RYV7:KMXpqpK|191.9.123.83|Brazil|São Paulo|São Paulo|01000|Vivo|Black List: No|Use Type: Residential
152.53.171.242:53354|187.202.255.62|Mexico|Mexico City|Delegación Cuajimalpa de Morelos|05000|UNINET|Black List: No|Use Type: Residential
188.245.189.170:29600:DVSfnu7XC1:MX9CNb|166.252.183.233|United States|Wisconsin|Fond du Lac|54935|Verizon Business|Black List: No|Use Type: Residential
152.53.171.242:24769|102.212.126.67|South Africa|Gauteng|Johannesburg|2000|DIRECTEL COMMUNICATIONS (PTY) LTD|Black List: No|Use Type: Residential
152.53.171.242:32637|92.232.100.12|United Kingdom|England|Torquay|TQ2|Virgin Media|Black List: No|Use Type: Residential
152.53.171.242:13795|41.208.169.3|Senegal|Dakar|Dakar||Sonatel|Black List: No|Use Type: Residential
188.245.189.170:47215:DVS1JJjpg0:vqfkFi|71.178.167.30|United States|Maryland|Bethesda|20814|Verizon Communications|Black List: No|Use Type: Residential
91.99.174.236:12120:DVSk7uPirE:uIyQNqp|96.233.51.207|United States|Massachusetts|Marlborough|01752|Verizon Business|Black List: No|Use Type: Residential
188.245.189.170:18302:DVSoJJLqts:YQAF9l|166.252.111.126|United States|Delaware|Townsend|19734|Verizon Business|Black List: No|Use Type: Residential
91.99.174.236:56443:DVSJXuHTD6:2IO6dum|87.65.48.36|Belgium|Flanders|Antwerp|2018|Proximus|Black List: No|Use Type: Residential
208.84.102.79:59110:DVSdkpPbO4:Vqdner9|85.227.88.10|Sweden|Halland County|Halmstad|302 52|Bredbandsbolaget|Black List: No|Use Type: Residential
208.84.102.79:10243:DVSpK37Iom:hNDqAkK|83.255.9.170|Sweden|Stockholm County|Sollentuna|191 46|COMHEM|Black List: No|Use Type: Residential
91.99.174.236:27912:DVS4Olq8Lu:U2qF9xv|87.0.104.203|Italy|Lombardy|Coccaglio|25030|Telecom Italia S.p.A. TIN EASY LITE|Black List: No|Use Type: Residential
91.99.174.236:45598:DVShO1JcSq:efQGIt5|194.166.175.115|Austria|Upper Austria|Linz|4020|A1 Telekom Austria AG|Black List: No|Use Type: Residential
91.99.174.236:27912:DVS4Olq8Lu:U2qF9xv|87.0.104.203|Italy|Lombardy|Coccaglio|25030|Telecom Italia S.p.A. TIN EASY LITE|Black List: No|Use Type: Residential
208.84.102.79:30305:DVSzcTNzKe:0H7dLW1|83.227.140.125|Sweden|Stockholm County|Stockholm|145 84|Bredbandsbolaget|Black List: No|Use Type: Residential
91.99.174.236:21039:DVSNr3y1v4:kM0aC4X|95.165.75.208|Russia|Moscow|Moscow|101000|Moscow Local Telephone Network (OAO MGTS)|Black List: No|Use Type: Residential
208.84.102.79:59110:DVSdkpPbO4:Vqdner9|85.227.88.10|Sweden|Halland County|Halmstad|302 52|Bredbandsbolaget|Black List: No|Use Type: Residential
208.84.102.79:10243:DVSpK37Iom:hNDqAkK|83.255.9.170|Sweden|Stockholm County|Sollentuna|191 46|COMHEM|Black List: No|Use Type: Residential
91.99.174.236:11096:DVSH9IAYYf:hrs0vcZ|88.204.88.163|Russia|Moscow|Moscow|123154|JSC "ER-Telecom Holding"|Black List: No|Use Type: Residential
91.99.174.236:27912:DVS4Olq8Lu:U2qF9xv|87.0.104.203|Italy|Lombardy|Coccaglio|25030|Telecom Italia S.p.A. TIN EASY LITE|Black List: No|Use Type: Residential
208.84.102.79:20889:DVScPGFmLK:rmQWAzf|125.19.253.142|India|Haryana|Gurugram|122004|BHARTI|Black List: No|Use Type: Residential
91.99.174.236:20326:DVSmJvIeCy:k1afhFi|91.182.110.139|Belgium|Wallonia|Mellet|6211|Proximus|Black List: No|Use Type: Residential
208.84.102.79:50999:DVSHNXDVdR:aKLcig8|60.243.246.162|India|Karnataka|Bengaluru|562114|Hathway IP over Cable Internet Access|Black List: No|Use Type: Residential
208.84.102.79:46191:DVS5jrMTiw:Mok1fSp|125.19.223.46|India|Maharashtra|Pune|411017|BHARTI|Black List: No|Use Type: Residential
91.99.174.236:32457:DVS46M5P13:2AmifAo|31.210.249.91|Sweden|Kronoberg County|Vaxjo|352 33|Net at Once AB|Black List: No|Use Type: Residential
91.99.174.236:32457:DVS46M5P13:2AmifAo|31.210.249.91|Sweden|Kronoberg County|Vaxjo|352 33|Net at Once AB|Black List: No|Use Type: Residential
91.99.174.236:20360:DVSsOQuLrt:z74dScj|14.201.15.232|Australia|Victoria|Melbourne|3205|TPG Internet Pty Ltd|Black List: No|Use Type: Residential
91.99.174.236:20326:DVSmJvIeCy:k1afhFi|91.182.110.139|Belgium|Wallonia|Mellet|6211|Proximus|Black List: No|Use Type: Residential
91.99.174.236:21039:DVSNr3y1v4:kM0aC4X|95.165.75.208|Russia|Moscow|Moscow|101000|Moscow Local Telephone Network (OAO MGTS)|Black List: No|Use Type: Residential
91.99.174.236:11096:DVSH9IAYYf:hrs0vcZ|88.204.88.163|Russia|Moscow|Moscow|123154|JSC "ER-Telecom Holding"|Black List: No|Use Type: Residential
208.84.102.79:30305:DVSzcTNzKe:0H7dLW1|83.227.140.125|Sweden|Stockholm County|Stockholm|145 84|Bredbandsbolaget|Black List: No|Use Type: Residential
208.84.102.79:45255:DVS9KxFJ1j:viDk1XL|77.37.166.19|Russia|Moscow|Moscow|123154|NCNET|Black List: No|Use Type: Residential
208.84.102.79:50999:DVSHNXDVdR:aKLcig8|60.243.246.162|India|Karnataka|Bengaluru|562114|Hathway IP over Cable Internet Access|Black List: No|Use Type: Residential
91.99.174.236:44034:DVSqdHgah3:lnepvRv|111.92.123.79|India|Kerala|Kochi|682024|Asianet Satellite Communications Pvt Ltd|Black List: No|Use Type: Residential
208.84.102.79:46191:DVS5jrMTiw:Mok1fSp|125.19.223.46|India|Maharashtra|Pune|411017|BHARTI|Black List: No|Use Type: Residential
91.99.174.236:20360:DVSsOQuLrt:z74dScj|14.201.15.232|Australia|Victoria|Melbourne|3205|TPG Internet Pty Ltd|Black List: No|Use Type: Residential
208.84.102.79:20889:DVScPGFmLK:rmQWAzf|125.19.253.142|India|Haryana|Gurugram|122004|BHARTI|Black List: No|Use Type: Residential
