46.224.87.167:33047:DVSyz7OAV9:zfgFNZi|186.159.249.65|Costa Rica|Provincia de San José|San José|10109|Cable Tica|Black List: No|Use Type: Residential
46.224.87.167:33047:DVSNfD9btO:SAwArTj|177.249.175.194|Mexico|Jalisco|Guadalajara|44600|Television Internacional, S.A. de C.V.|Black List: No|Use Type: Residential
46.224.87.167:33047:DVShncuu8x:eiYxMMe|41.250.245.151|Morocco|Casablanca-Settat|Casablanca||ADSL Maroc telecom|Black List: No|Use Type: Residential
152.53.170.41:29641:DVSRVRfAcT:XRar7JA|77.3.203.1|Germany|Hamburg|Hamburg|20253|Telefonica Deutschland GmbH|Black List: No|Use Type: Residential
46.224.87.167:33047:DVSwO27AJW:4bS2y3p|31.223.131.135|Bosnia and Herzegovina|Republika Srpska|Banja Luka||Telekom Srpske|Black List: No|Use Type: Residential
152.53.170.41:29641:DVSRGMUlPG:CTrwVf9|86.246.65.47|France|Île-de-France|Vitry-sur-Seine|94400|Orange|Black List: No|Use Type: Residential
91.98.38.205:34179:DVSFnZ98am:EICLeuv|95.107.38.21|Russia|Oryol oblast|Oryol|302000|PJSC Rostelecom|Black List: No|Use Type: Residential
91.98.38.205:34179:DVSeCfNQWi:m4TS1Ra|77.77.216.206|Bosnia and Herzegovina|Federation of Bosnia and Herzegovina|Sarajevo||TELEMACH BH|Black List: No|Use Type: Residential
91.98.38.205:34179:DVSQvLVS1U:3U2yCiv|109.242.245.90|Greece|Attica|Drapetsona||Tellas|Black List: No|Use Type: Residential
91.98.38.205:34179:DVS8Vry8Ke:Mx6Z6DY|181.55.23.137|Colombia|Santander Department|Bucaramanga|680003|Telmex Colombia S.A.|Black List: No|Use Type: Business
91.98.38.205:34179:DVSYhN8EjD:rLCLTI2|145.255.177.69|Kazakhstan|West Kazakhstan|Fedorovka||JSC Kazakhtelecom|Black List: No|Use Type: Residential
91.98.38.205:34179:DVS00dh05j:Ld9JHcY|181.197.153.11|Panama|Provincia de Panamá|Panama City|34002|Cable Onda|Black List: No|Use Type: Residential
91.98.38.205:34179:DVS6XX82Qi:N5p4dSq|105.165.232.253|Kenya|Nairobi County|Nairobi|00100|Safaricom Limited|Black List: No|Use Type: Residential
46.224.87.167:33047:DVS1FksHOQ:kXEvD08|103.127.5.12|Bangladesh|Dhaka Division|Gazipur|1704|Md Abu Rasel|Black List: No|Use Type: Residential
91.98.38.205:34179:DVSF6HCRpk:iPq1fCf|103.251.19.170|India|Gujarat|Surat|394101|GTPLSolanci cable network Pvt Ltd|Black List: No|Use Type: Residential
162.55.188.17:41169:DVSbuENjU5:KXNAx6p|86.108.33.44|Jordan|Amman Governorate|Amman||Jordan Data Communications Company LLC|Black List: No|Use Type: Residential
162.55.188.17:41169:DVSHbmXZ38:J8op1FH|130.25.90.251|Italy|Piedmont|Turin|10144|VODAFONE|Black List: No|Use Type: Residential
46.224.87.167:33047:DVSutxKWqs:NsBhVTs|102.142.98.211|Gabon|Estuaire|Libreville||GVA Cote d'Ivoire SAS|Black List: No|Use Type: Residential
91.98.38.205:34179:DVSZy4lrLj:DKffDrn|154.0.185.5|Gabon|Estuaire|Libreville||Airtel Gabon S.A|Black List: No|Use Type: Residential
162.55.188.17:41169:DVSNx4IYX9:s7UKaZQ|79.13.105.245|Italy|Sicily|Catania|95127|INTERBUSINESS|Black List: No|Use Type: Residential
91.98.38.205:34179:DVS1a5ppal:kcNUyRU|223.205.240.21|Thailand|Nakhon Ratchasima|Nakhon Ratchasima|30000|Triple T Broadband Public Company Limited|Black List: No|Use Type: Residential
91.98.38.205:34179:DVSEEYmK3h:XqC1qyA|184.22.162.91|Thailand|Bangkok|Bangkok|10260|AIS-Fibre|Black List: No|Use Type: Residential
162.55.188.17:41169:DVS44xIQJU:r2PvBbQ|181.9.225.55|Argentina|Santa Fe|Rosario|2000|Telecom Argentina S.A.|Black List: No|Use Type: Residential
152.53.171.242:40073|174.72.81.244|United States|Arizona|Phoenix|85037|Cox Communications Inc.|Black List: No|Use Type: Residential
91.98.38.205:34179:DVSn6zfSJu:WtsZ2i5|181.62.211.188|Colombia|Bogota D.C.|Bogotá|111321|Telmex Colombia S.A.|Black List: No|Use Type: Business
46.224.87.167:33047:DVSXWntSTZ:bksIXqo|190.133.90.192|Uruguay|Montevideo Department|Montevideo|11700|Administracion Nacional de Telecomunicaciones|Black List: No|Use Type: Residential
152.53.171.242:22536|107.223.134.154|United States|Texas|Euless|76039|AT&T Enterprises, LLC|Black List: No|Use Type: Residential
46.224.87.167:33047:DVStKxKKNS:vnv2i3v|88.213.208.113|Bulgaria|Sliven|Yablanovo|8989|NETBOX Boramax|Black List: No|Use Type: Residential
162.55.188.17:41169:DVSLDaZs2E:rqX5NmH|200.125.71.64|Argentina|Buenos Aires|Buenos Aires|1772|Telecentro S.A.|Black List: No|Use Type: Residential
152.53.171.242:33287|45.149.183.130|Spain|Valencia|Aldaia|46960|CELENET|Black List: No|Use Type: Residential
162.55.188.17:41169:DVSJnN5Q8I:cRd42pN|186.96.176.30|Mexico|Mexico City|Mexico City|03020|Total Play Telecomunicaciones SA De CV|Black List: No|Use Type: Residential
162.55.188.17:41169:DVSLiYXBJR:PC6UGjR|38.65.161.132|Mexico|Sonora|Ciudad Obregón|85098|Cogent Communications|Black List: No|Use Type: Residential
46.224.87.167:33047:DVSb0nByrO:GubNumv|Unknown|Unknown|Unknown|Unknown|Unknown|Unknown|Black List: No|Use Type: Residential
91.98.38.205:34179:DVS82qbek7:T2Wxiki|143.105.129.144|Guyana|Demerara-Mahaica Region|Georgetown||Space Exploration Technologies Corporation|Black List: No|Use Type: Residential
152.53.171.242:14314|69.216.99.16|United States|California|Hayward|94541|AT&T Enterprises, LLC|Black List: No|Use Type: Residential
152.53.171.242:28620|68.52.226.167|United States|Indiana|Tell City|47586|Comcast Cable Communications, LLC|Black List: No|Use Type: Residential
152.53.171.242:15477|68.69.149.19|Canada|Ontario|Stratford|N5A|Wightman Telecom|Black List: No|Use Type: Residential
152.53.171.242:49469|176.138.16.33|France|Provence-Alpes-Côte d'Azur|Cannes|06150|BOUYGUES Telecom|Black List: No|Use Type: Residential
152.53.171.242:50655|98.166.27.4|United States|Virginia|Hampton|23669|Cox Communications Inc.|Black List: No|Use Type: Residential
37.120.162.180:50419|86.245.225.64|France|Île-de-France|Houilles|78800|Orange|Black List: No|Use Type: Residential
152.53.171.242:27136|82.18.206.32|United Kingdom|England|York|YO26|Virgin Media Limited|Black List: No|Use Type: Residential
152.53.171.242:25625|141.149.62.207|United States|New York|East Setauket|11733|Verizon Business|Black List: No|Use Type: Residential
152.53.171.242:10024|84.169.24.240|Germany|Saxony-Anhalt|Allstedt|06542|Deutsche Telekom AG|Black List: No|Use Type: Residential
152.53.171.242:23607|184.66.94.76|Canada|British Columbia|Nanaimo|V9R|Shaw Communications|Black List: No|Use Type: Residential
152.53.171.242:10180|86.176.205.48|United Kingdom|England|Doncaster|DN5|BT Public Internet Service|Black List: No|Use Type: Residential
152.53.171.242:43423|68.41.150.199|United States|Michigan|Dearborn|48126|Comcast Cable Communications, LLC|Black List: No|Use Type: Residential
152.53.171.242:27856|92.178.125.165|Spain|Catalonia|Barcelona|08030|UNI2-NET- Orange Spain Network|Black List: No|Use Type: Residential
152.53.171.242:36135|Unknown|Unknown|Unknown|Unknown|Unknown|Unknown|Black List: No|Use Type: Residential
152.53.171.242:13772|Unknown|Unknown|Unknown|Unknown|Unknown|Unknown|Black List: No|Use Type: Residential
152.53.171.242:14358|107.129.246.32|United States|Texas|Cypress|77433|AT&T Enterprises, LLC|Black List: No|Use Type: Residential
152.53.171.242:44799|109.41.113.134|Germany|State of Berlin|Berlin|10829|D2VODAFONE|Black List: No|Use Type: Residential
152.53.171.242:56457|37.66.42.9|France|Provence-Alpes-Côte d'Azur|Marseille|13013|Societe Francaise Du Radiotelephone - SFR SA|Black List: No|Use Type: Residential
152.53.171.242:58707|173.95.54.229|United States|North Carolina|Jamestown|27282|Spectrum|Black List: No|Use Type: Residential
152.53.171.242:45681|98.47.116.42|United States|California|Pacifica|94044|Comcast Cable Communications, LLC|Black List: No|Use Type: Residential
152.53.171.242:16218|Unknown|Unknown|Unknown|Unknown|Unknown|Unknown|Black List: No|Use Type: Residential
162.55.188.17:41169:DVS271QZVG:RIAdLYz|186.128.168.68|Argentina|Buenos Aires|Berazategui|1884|Telefonica de Argentina|Black List: No|Use Type: Residential
162.55.188.17:41169:DVSWEjZjYB:BOOYjSU|177.0.212.64|Brazil|Santa Catarina|Lages|88500|V tal|Black List: No|Use Type: Residential
152.53.170.41:29641:DVSEAshvyq:LdEjeQ1|23.117.43.17|United States|Florida|Orange Park|32065|AT&T Enterprises, LLC|Black List: No|Use Type: Residential
152.53.170.41:29641:DVSG5XXGQn:XAWNg6u|73.163.1.58|United States|West Virginia|Martinsburg|25404|Comcast Cable Communications|Black List: No|Use Type: Residential
152.53.170.41:29641:DVSVbzCcxQ:sODsqhw|172.56.149.34|United States|Idaho|Garden City|83714|T-Mobile USA, Inc.|Black List: No|Use Type: Cellular
152.53.170.41:29641:DVSAe3bKXR:l833fSJ|45.46.211.138|United States|Massachusetts|Lee|01238|Charter Communications Inc|Black List: No|Use Type: Residential
152.53.170.41:29641:DVS7XdKeYy:3DQu5G4|46.110.199.48|United States|Texas|Copperas Cove|76522|Metronet|Black List: No|Use Type: Residential
152.53.170.41:29641:DVSQm3MeUu:urTnxQS|65.28.2.145|United States|Missouri|Kansas City|64133|Charter Communications|Black List: No|Use Type: Residential
152.53.170.41:29641:DVSCLOwv8b:MruYFeY|96.246.8.62|United States|New York|New Rochelle|10801|Verizon Business|Black List: No|Use Type: Residential
152.53.170.41:29641:DVSYMY67X6:0Z6wYkN|184.14.118.134|United States|West Virginia|Milton|25541|Frontier Communications Solutions|Black List: No|Use Type: Residential
152.53.170.41:29641:DVSHjW9IFF:lckVW4Q|216.103.153.139|United States|Texas|Abilene|79699|AT&T Enterprises, LLC|Black List: No|Use Type: Residential
152.53.170.41:29641:DVSdRRF9Ks:4m4DXTd|86.13.66.190|United Kingdom|England|Wirral|CH63|Virgin Media Limited|Black List: No|Use Type: Residential
152.53.170.41:29641:DVSutDeEQt:MOVTuTt|71.8.78.32|United States|Alabama|Montevallo|35115|Charter Communications|Black List: No|Use Type: Residential
152.53.170.41:29641:DVS0Spoegz:iKDFcuu|98.208.162.67|United States|Florida|Naples|34110|Comcast Cable Communications, LLC|Black List: No|Use Type: Residential
152.53.170.41:29641:DVStNRRSBF:THMBXEY|217.40.196.79|United Kingdom|England|London|SE1|BT Public Internet Service|Black List: No|Use Type: Residential
37.120.162.180:43671|91.126.178.227|Spain|Castille and León|Polentinos|34846|Adamo Telecom Iberia S.A Catalonia|Black List: No|Use Type: Residential
152.53.170.41:29641:DVSYM9xwvo:R5VRgSS|76.89.165.8|United States|California|Westlake Village|91361|Charter Communications|Black List: No|Use Type: Residential
152.53.170.41:29641:DVSIKezwI0:btH6bsK|38.9.242.243|United States|Arizona|Glendale|85303|Wyyerd Group|Black List: No|Use Type: Residential
152.53.170.41:29641:DVSUV1aBVG:lgz5bif|88.97.220.16|United Kingdom|England|Nottingham|NG17|YouFibre Limited|Black List: No|Use Type: Residential
152.53.171.242:23070|Unknown|Unknown|Unknown|Unknown|Unknown|Unknown|Black List: No|Use Type: Residential
152.53.170.41:29641:DVSs2PykUw:ksbrvOy|68.198.184.34|United States|New York|Brooklyn|11235|Cablevision Systems Corp.|Black List: No|Use Type: Residential
152.53.170.41:29641:DVSZG671Ud:ib81Tdf|45.3.55.165|Germany|State of Berlin|Berlin|10178|3xK Tech GmbH|Black List: No|Use Type: Residential
152.53.170.41:29641:DVSBlw83OB:VuuAQ1u|216.26.252.242|France|Île-de-France|Paris|75001|3xK Tech GmbH|Black List: No|Use Type: Residential
152.53.170.41:29641:DVSOhVTkfe:FC21MQy|65.111.25.177|Germany|State of Berlin|Berlin|10178|3xK Tech GmbH|Black List: No|Use Type: Residential
152.53.170.41:29641:DVSqYWpoc2:uPQt1wZ|91.89.205.49|Germany|Baden-Wurttemberg|Hohberg|77749|Vodafone|Black List: No|Use Type: Residential
152.53.170.41:29641:DVSSIP5gCE:xe5fs2C|65.111.24.158|Germany|State of Berlin|Berlin|10178|3xK Tech GmbH|Black List: No|Use Type: Residential
152.53.170.41:29641:DVSPHFpAS5:sdD5vLH|84.128.119.162|Germany|Baden-Wurttemberg|Kißlegg|88353|Deutsche Telekom AG|Black List: No|Use Type: Residential
152.53.170.41:29641:DVSaFGhKQE:l1ELYRn|46.223.163.23|Germany|Baden-Wurttemberg|Karlsruhe|76133|Vodafone|Black List: No|Use Type: Residential
152.53.170.41:29641:DVSt1ns69r:7slHaCO|216.26.245.199|Germany|State of Berlin|Berlin|10178|3xK Tech GmbH|Black List: No|Use Type: Residential
152.53.170.41:29641:DVSeUCMIta:53FPmdC|195.90.223.172|Germany|State of Berlin|Berlin|10555|EVANZO e-commerce GmbH|Black List: No|Use Type: Residential
152.53.170.41:29641:DVSEqL8Ps7:XDiqmWx|95.91.221.43|Germany|Saarland|Saarbrücken|66123|Vodafone Kabel Deutschland|Black List: No|Use Type: Residential
152.53.170.41:29641:DVSOLJ10h6:RHLw4Yp|92.208.228.128|Germany|Baden-Wurttemberg|Reutlingen|72768|Vodafone GmbH|Black List: No|Use Type: Residential
152.53.170.41:29641:DVS4W8edIY:jhZTQJw|47.64.114.94|Germany|Baden-Wurttemberg|Stuttgart|70174|Vodafone Global Enterprise Inc.|Black List: No|Use Type: Residential
152.53.170.41:29641:DVSmGp3LLB:j2tyKW0|163.172.72.35|France|Île-de-France|Paris|75001|Online S.A.S.|Black List: No|Use Type: Residential
46.224.87.167:33047:DVSxJrpASZ:fD71tTr|92.253.95.3|Jordan|Amman Governorate|Amman||Jordan Telecom Group ( Orange)|Black List: No|Use Type: Residential
162.55.188.17:41169:DVSKcmFcuP:ln6Fc0G|186.22.26.28|Argentina|Buenos Aires|Mariano Acosta|1723|Telecentro S.A.|Black List: No|Use Type: Residential
152.53.170.41:29641:DVSNfvUmRT:6xZDLPf|195.252.230.121|United States|Virginia|Norfolk|23513|Metronet|Black List: No|Use Type: Residential
152.53.170.41:29641:DVSck6p5ef:nbBIcnU|188.30.133.128|United Kingdom|England|Walthamstow|E17|Hutchison 3G UK Ltd|Black List: No|Use Type: Residential
152.53.170.41:29641:DVSQ1nj6Gb:ulBhgBE|96.248.120.199|United States|New Jersey|East Windsor|08520|Verizon Business|Black List: No|Use Type: Residential
152.53.170.41:29641:DVSfiNqxlb:QJ1oJ03|97.105.28.179|United States|Texas|Cedar Park|78613|Spectrum|Black List: No|Use Type: Residential
152.53.170.41:29641:DVSntKxKUK:kb7mK1B|86.176.176.47|United Kingdom|England|Cannock|WS12|BT Public Internet Service|Black List: No|Use Type: Residential
152.53.170.41:29641:DVSTFhjlcd:rr1ZOp6|86.16.13.10|United Kingdom|England|Bromley|BR2|Virgin Media Limited|Black List: No|Use Type: Residential
152.53.170.41:29641:DVSzDjOhMB:EkNSwu4|82.132.184.73|United Kingdom|England|Shipley|BD18|O2 Online|Black List: No|Use Type: Residential
152.53.171.242:25162|23.92.13.153|United States|Texas|College Station|77842|WireStar, Inc.|Black List: No|Use Type: Residential
162.55.188.17:41169:DVSbEy4FWT:6qQ1Ch9|179.110.87.240|Brazil|São Paulo|Indaiatuba|13330|Vivo|Black List: No|Use Type: Residential
152.53.170.41:29641:DVSeFiMm5y:xjdh5Df|86.4.98.251|United Kingdom|England|Pontefract|WF9|Virgin Media Limited|Black List: No|Use Type: Residential
152.53.170.41:29641:DVSxJfKncz:8hZQz5u|89.243.123.174|United Kingdom|England|Nottingham|NG6|TalkTalk|Black List: No|Use Type: Residential
152.53.170.41:29641:DVSCC9VYQQ:mgyEwsB|82.12.92.60|United Kingdom|England|Royal Leamington Spa|CV32|Virgin Media Limited|Black List: No|Use Type: Residential
152.53.170.41:29641:DVSUbMEedU:oYmnVYy|173.47.204.84|United States|Kansas|Independence|67301|Cable ONE|Black List: No|Use Type: Residential
152.53.170.41:29641:DVSautsYnA:LCzg4Mj|50.5.241.59|United States|Ohio|Harrison|45030|Cincinnati Bell Telephone Company LLC|Black List: No|Use Type: Residential
162.55.188.17:41169:DVS1OFvzqY:eiKgvmT|128.201.101.169|Brazil|Minas Gerais|Teófilo Otoni|39800|Conexao VIP Telecom|Black List: No|Use Type: Residential
46.224.87.167:33047:DVSust4o2B:Q1y2txr|188.53.230.197|Saudi Arabia|Mecca Region|Jeddah||Saudinet DSL|Black List: No|Use Type: Residential
152.53.170.41:29641:DVSS96IdLB:NULYhRQ|65.111.30.221|France|Île-de-France|Paris|75001|3xK Tech GmbH|Black List: No|Use Type: Residential
152.53.170.41:29641:DVSH8FTrvi:EEMi65C|80.43.193.78|United Kingdom|England|Leytonstone|E11|TalkTalk|Black List: No|Use Type: Residential
152.53.170.41:29641:DVSe6wluzt:EMrB4zi|104.207.63.9|France|Île-de-France|Paris|75001|3xK Tech GmbH|Black List: No|Use Type: Residential
91.98.38.205:34179:DVSfEuRpEH:LM0OJiI|46.153.178.15|Saudi Arabia|Riyadh Region|Riyadh|09848|Etihad Etisalat|Black List: No|Use Type: Residential
46.224.87.167:33047:DVSXfvBBk2:sFgZ4hz|82.167.44.216|Saudi Arabia|Riyadh Region|Riyadh|09848|Integrated Telecom Co. Ltd|Black List: No|Use Type: Residential
91.98.38.205:34179:DVSq9flzNS:0LXwUar|188.53.213.203|Saudi Arabia|Medina Region|Medina||Saudinet DSL|Black List: No|Use Type: Residential
152.53.170.41:29641:DVS5YAwwvt:UuwLZLv|62.216.211.15|Germany|Bavaria|Munich|81373|M-net Telekommunikations GmbH|Black List: No|Use Type: Residential
152.53.170.41:29641:DVSP3dOWDi:4ttyMZj|51.191.168.193|United Kingdom|England|Corby|NN17|Sky UK Limited|Black List: No|Use Type: Residential
152.53.170.41:29641:DVSxfe3pvK:lFIHAWw|95.147.38.250|United Kingdom|England|Worcester|WR5|EE Limited|Black List: No|Use Type: Residential
152.53.170.41:29641:DVSCA45FUk:aKvSyDo|81.107.97.244|United Kingdom|Northern Ireland|Newtownabbey|BT36|Virgin Media|Black List: No|Use Type: Residential
91.98.38.205:34179:DVSzGDSjBD:btZs8Bg|177.75.107.96|Brazil|Santa Catarina|Chapecó|89800|Mhnet Telecom|Black List: No|Use Type: Residential
91.98.38.205:34179:DVSKdE2ULV:ws12cUI|82.197.61.94|Saudi Arabia|Mecca Region|Jeddah||Mobile Telecommunication Company Saudi Arabia Joint-Stock company|Black List: No|Use Type: Cellular
152.53.170.41:29641:DVSaUJTF0z:5KxJGxE|2.100.11.29|United Kingdom|England|Birmingham|B18|TalkTalk|Black List: No|Use Type: Residential
91.98.38.205:34179:DVSRx749eJ:lrUQJiB|51.36.226.184|Saudi Arabia|Riyadh Region|Riyadh|09848|Mobile Telecommunication Company Saudi Arabia Joint-Stock company|Black List: No|Use Type: Cellular
46.224.87.167:33047:DVS7NwntZI:2w5jw6d|193.163.116.198|Albania|Lezhë County|Shëngjin||Netsyscom sh.p.k|Black List: No|Use Type: Residential
152.53.170.41:29641:DVS0cX1GfB:5w8P6k4|5.80.193.166|United Kingdom|England|Sudbury|CO10|BT Public Internet Service|Black List: No|Use Type: Residential
46.224.87.167:33047:DVSev65nK8:98ncCto|77.247.94.159|Albania|Fier County|Fier||Teleco Seventh|Black List: No|Use Type: Residential
46.224.87.167:33047:DVSioqvPI3:60v8dtu|79.174.26.64|Albania|Durrës County|Manzë||PRIAM NET Sh.p.k.|Black List: No|Use Type: Residential
46.224.87.167:33047:DVS4PAIsAL:RPo5A93|46.148.133.53|Russia|Vladimir Oblast|Vyazniki|601440|Trytek LLC|Black List: No|Use Type: Residential
162.55.188.17:41169:DVSUyyfP1z:cTCCI6F|45.230.115.235|Brazil|Ceará|Caucaia|61600|Mundial|Black List: No|Use Type: Residential
152.53.170.41:29641:DVSnRTUS36:RP3DAJq|97.115.123.133|United States|Oregon|Portland|97206|CenturyLink|Black List: No|Use Type: Residential
152.53.170.41:29641:DVStOOKZqw:bdVwxsK|172.56.0.65|United States|Florida|Cape Coral|33991|T-Mobile USA, Inc.|Black List: No|Use Type: Cellular
152.53.170.41:29641:DVSzNzPJ1T:I7HsmtG|72.15.142.212|United States|Florida|Live Oak|32060|Rapid Fiber Internet, LLC|Black List: No|Use Type: Residential
152.53.170.41:29641:DVSIvncUIM:eaDEYKO|Unknown|Unknown|Unknown|Unknown|Unknown|Unknown|Black List: No|Use Type: Residential
91.98.38.205:34179:DVSFLsauJY:tzcjHQX|185.221.252.196|Albania|Korçë County|Pogradec||FASTNET ALBANIA Sh.p.k|Black List: No|Use Type: Residential
152.53.170.41:29641:DVSL4UbttK:nGR3pNY|73.37.224.65|United States|Minnesota|Saint Paul|55103|Comcast Cable Communications|Black List: No|Use Type: Residential
152.53.170.41:29641:DVS39ccawh:axbpUaE|216.234.200.248|United States|California|San Jose||SpaceX Starlink|Black List: No|Use Type: Residential
152.53.170.41:29641:DVSg8uOCdK:UL3zBTT|98.168.236.210|United States|Nebraska|Omaha|68106|Cox Communications Inc.|Black List: No|Use Type: Residential
91.98.38.205:34179:DVS1l4H6xD:sl6DZPH|94.156.166.132|Albania|Tirana|Kavajë||Gezim Cerri|Black List: No|Use Type: Residential
37.120.162.180:14473|37.66.210.15|France|Occitanie|Toulouse|31000|Societe Francaise Du Radiotelephone - SFR SA|Black List: No|Use Type: Residential
152.53.170.41:29641:DVS4DtlFFh:RHAkfLz|98.115.160.200|United States|Pennsylvania|Havertown|19083|Verizon Business|Black List: No|Use Type: Residential
152.53.170.41:29641:DVS0l1iSPJ:u8v8yeA|170.205.130.73|United States|Alabama|Pell City|35128|Hargray Communications Group, Inc.|Black List: No|Use Type: Residential
162.55.188.17:41169:DVSXSP9SsV:7vJZ8mx|38.224.248.105|Brazil|São Paulo|Iracemápolis|13495|Link-ip Telecomunicacoes Ltda|Black List: No|Use Type: Residential
152.53.170.41:29641:DVS2gUcgSv:TphPi1n|68.131.52.246|United States|Virginia|Virginia Beach|23452|Verizon Communications|Black List: No|Use Type: Residential
162.55.188.17:41169:DVSHSTemtA:VrBgUX1|45.165.86.139|Brazil|Rio Grande do Sul|Porto Alegre|90000|Rlnet Provedor|Black List: No|Use Type: Residential
152.53.170.41:29641:DVSRrYwKBT:5kVTCjL|47.221.33.126|United States|Texas|Leander|78641|Suddenlink Communications|Black List: No|Use Type: Residential
152.53.170.41:29641:DVS3iUIv4O:6wSxUAQ|73.161.169.4|United States|Michigan|Royal Oak|48073|Comcast Cable Communications|Black List: No|Use Type: Residential
152.53.170.41:29641:DVSckvlTke:DIYtOwI|8.12.3.87|United States|Florida|Fort Lauderdale|33349|Hotwire Communications|Black List: No|Use Type: Residential
46.224.87.167:33047:DVS9IX6VHj:mHnFUrm|Unknown|Unknown|Unknown|Unknown|Unknown|Unknown|Black List: No|Use Type: Residential
46.224.87.167:33047:DVSe4WTxZ0:5nwp3Yp|Unknown|Unknown|Unknown|Unknown|Unknown|Unknown|Black List: No|Use Type: Residential
152.53.170.41:29641:DVSdvJPtTo:GgV1xtI|174.119.48.33|Canada|Ontario|Brampton|L6X|Rogers Communications Canada Inc.|Black List: No|Use Type: Residential
91.98.38.205:34179:DVSI3xVw2I:2XU0rTf|Unknown|Unknown|Unknown|Unknown|Unknown|Unknown|Black List: No|Use Type: Residential
152.53.170.41:29641:DVSJCqQSgv:SONsvHX|216.26.237.45|United States|Virginia|Ashburn|20149|3xK Tech GmbH|Black List: No|Use Type: Residential
152.53.170.41:29641:DVSflGMcQO:JTBdHqS|209.50.188.225|Canada|Ontario|Toronto|M5A|3xK Tech GmbH|Black List: No|Use Type: Residential
46.224.87.167:33047:DVSgtzdHoG:HHH9gTS|178.73.70.42|Saudi Arabia|Riyadh Region|Riyadh|09848|Bayanat Al-Oula Network Services|Black List: No|Use Type: Residential
152.53.170.41:29641:DVSHAUxv0i:96ppx20|89.82.6.193|France|Occitanie|Le Poujol-sur-Orb|34600|Bouygues Telecom ISP|Black List: No|Use Type: Residential
162.55.188.17:41169:DVShWTah70:mLLDZ6j|109.63.56.72|Bahrain|Southern Governorate|Isa Town||MENA-CORE|Black List: No|Use Type: Residential
162.55.188.17:41169:DVSMgKAJKL:yQ4EOZu|170.81.241.99|Peru|Lambayeque|Chiclayo|14007|Inventa Telecomunicaciones Eirl|Black List: No|Use Type: Residential
162.55.188.17:41169:DVSTQ0POmO:n7Dix0K|38.25.22.203|Peru|Lima Province|Lima||WI-NET Telecom SAC|Black List: No|Use Type: Residential
152.53.170.41:29641:DVSo0gVrTr:DEzdjYZ|172.116.33.196|United States|California|Santa Clarita|91321|Charter Communications|Black List: No|Use Type: Residential
46.224.87.167:33047:DVSQKeirDc:tNZXmjZ|190.237.80.92|Peru|Cuzco Department|Cusco||TDP-GRS|Black List: No|Use Type: Residential
162.55.188.17:41169:DVSaAyiuk6:3rbkCIH|181.67.60.130|Peru|Ica|Chincha Alta||Telefonica del Peru S.A.A.|Black List: No|Use Type: Residential
162.55.188.17:41169:DVSrvBA0os:k5Tq1Xg|45.171.165.134|Peru|Lima Province|Lima||Conex TV E.I.R.L.|Black List: No|Use Type: Residential
162.55.188.17:41169:DVShwk1ZtC:3hpx1a4|179.6.170.77|Peru|Lima region|Independencia||America Movil Peru S.A.C.|Black List: No|Use Type: Residential
162.55.188.17:41169:DVSvfjZ73w:1IxhqAf|179.6.167.129|Peru|Arequipa|Arequipa||America Movil Peru S.A.C.|Black List: No|Use Type: Residential
91.98.38.205:34179:DVSUatkUR0:fU8ildW|66.118.167.134|Saudi Arabia|Mecca Region|Ta'if||Saudi Telecom Company JSC|Black List: No|Use Type: Residential
91.98.38.205:34179:DVSCdU78Hx:4yHUcYU|95.87.64.185|Kyrgyzstan|Gorod Bishkek|Bishkek||NUR Telecom LLC|Black List: No|Use Type: Residential
91.98.38.205:34179:DVSYVVOvda:3ZBCO1m|151.255.8.134|Saudi Arabia|Mecca Region|Jeddah||Saudi Arabia backbone and local registry / STC|Black List: No|Use Type: Residential
91.98.38.205:34179:DVSOQcjwI2:bgd4xgw|77.223.227.176|Saudi Arabia|Eastern Province|Al Qaţīf||Mobile Telecommunication Company Saudi Arabia Joint-Stock company|Black List: No|Use Type: Cellular
91.98.38.205:34179:DVS5W6zlFh:vMBXsg0|51.36.222.168|Saudi Arabia|Mecca Region|Jeddah||Mobile Telecommunication Company Saudi Arabia Joint-Stock company|Black List: No|Use Type: Cellular
91.98.38.205:34179:DVSdTTIZFr:28qaELX|38.250.159.10|Peru|Huánuco Department|Huánuco||Cogent Communications|Black List: No|Use Type: Residential
152.53.170.41:29641:DVSFBwh23y:kqrX0EP|154.213.163.14|Germany|State of Berlin|Berlin|10178|3xK Tech GmbH|Black List: No|Use Type: Residential
46.224.87.167:33047:DVS4rp6zCB:Xi0nPTX|193.104.143.45|Albania|Lezhë County|Lezhë|4501|Erlis Marku|Black List: No|Use Type: Residential
91.98.38.205:34179:DVSIoITv7p:s77Y8u0|179.6.164.108|Peru|Arequipa|Arequipa||America Movil Peru S.A.C.|Black List: No|Use Type: Residential
91.98.38.205:34179:DVSd450Owq:weikDWp|46.112.80.10|Poland|Lesser Poland|Brzesko|32-800|P4 Sp. z o.o.|Black List: No|Use Type: Residential
91.98.38.205:34179:DVSPKioMWx:CUKtzd7|80.202.91.66|Norway|Telemark|Skien|3712|NextGenTel Network|Black List: No|Use Type: Residential
91.98.38.205:34179:DVSBRH86yl:gGR1I3i|89.76.136.140|Poland|Lesser Poland|Olkusz|32-300|UPC.pl|Black List: No|Use Type: Residential
91.98.38.205:34179:DVSV5S4h6e:0CjE3Ea|93.159.7.169|Poland|Greater Poland|Poznan|61-578|NETIA|Black List: No|Use Type: Residential
91.98.38.205:34179:DVSI1UCG7p:v5sORiU|45.85.11.48|Poland|Lublin|Tomaszów Lubelski|22-600|TOM-NET s.c. Dariusz Koper, Radoslaw Koper|Black List: No|Use Type: Residential
162.55.188.17:41169:DVSSW7Gk2t:ualH9By|37.100.68.184|Italy|Campania|Naples|80129|Wind TRE S.P.A|Black List: No|Use Type: Residential
91.98.38.205:34179:DVSuaAtQXN:obuPumv|Unknown|Unknown|Unknown|Unknown|Unknown|Unknown|Black List: No|Use Type: Residential
91.98.38.205:34179:DVSkUOI2h8:cr3caz2|185.56.211.117|Poland|Lower Silesia|Krzyżowice|55-040|GreenLan|Black List: No|Use Type: Residential
162.55.188.17:41169:DVSPWbtrR3:TqwpvQu|88.230.196.92|Türkiye|Gaziantep|Gaziantep|27000|Turk Telekomunikasyon A.S|Black List: No|Use Type: Residential
91.98.38.205:34179:DVSn8vWEYW:4OUuCb8|83.7.72.7|Poland|Lower Silesia|Wroclaw|51-114|Orange Polska Spolka Akcyjna|Black List: No|Use Type: Residential
46.224.87.167:33047:DVSW8hAvDC:IKrHkSB|82.142.103.213|Czechia|Prague|Prague|160 00|Vodafone Czech Republic|Black List: No|Use Type: Residential
46.224.87.167:33047:DVSLmP0Pyu:gJzIEfF|80.76.160.14|Qatar|Baladīyat ad Dawḩah|Doha|559|Vodafone Qatar Q.S.C|Black List: No|Use Type: Residential
91.98.38.205:34179:DVSvkardf8:RNwMqjO|78.66.106.218|Sweden|Västra Götaland County|Borås|504 55|Telia Company AB|Black List: No|Use Type: Residential
91.98.38.205:34179:DVSXxT5Cgw:6ZgoGEG|94.234.86.36|Sweden|Skåne County|Ystad|271 99|Telenor Sverige AB|Black List: No|Use Type: Residential
91.98.38.205:34179:DVSz7g1hXt:pMQVJEG|94.191.153.45|Sweden|Östergötland County|Boxholm|590 11|Hi3G Access AB|Black List: No|Use Type: Residential
91.98.38.205:34179:DVSCugsFsr:6y31IyL|78.72.202.8|Sweden|Stockholm County|Märsta|195 59|Telia Company AB|Black List: No|Use Type: Residential
162.55.188.17:41169:DVSL7NHDEK:WceI7ux|93.47.44.67|Italy|Lazio|Rome|00198|Fastweb Networks|Black List: No|Use Type: Residential
162.55.188.17:41169:DVSN6va2RN:Jgob2ue|Unknown|Unknown|Unknown|Unknown|Unknown|Unknown|Black List: No|Use Type: Residential
152.53.170.41:29641:DVS10is3Ir:3felZOM|92.206.71.195|Germany|Saxony|Chemnitz|09130|Tele Columbus Betriebs GmbH|Black List: No|Use Type: Residential
152.53.170.41:29641:DVSfYS08OW:MwtL4OQ|77.228.64.241|Spain|Balearic Islands|Cala Millor|07560|IPCOM|Black List: No|Use Type: Residential
91.98.38.205:34179:DVSR1la8vC:qTw17yG|155.4.132.137|Sweden|Västra Götaland County|Gothenburg|415 63|Bahnhof AB|Black List: No|Use Type: Residential
152.53.170.41:29641:DVSP1v7RXM:8Fbvg5U|95.23.125.240|Spain|Catalonia|Barcelona|08015|Orange Spain|Black List: No|Use Type: Residential
152.53.170.41:29641:DVSSPPccvn:Mei7WYK|90.63.70.152|France|Centre-Val de Loire|Tours|37000|France Telecom Orange|Black List: No|Use Type: Residential
91.98.38.205:34179:DVSetw4dqa:heh3Vcj|109.81.112.163|Czechia|South Moravian|Brno|602 00|FIX BB Czechia-vl|Black List: No|Use Type: Residential
162.55.188.17:41169:DVSejABpNu:yCR4bZf|94.249.49.121|Jordan|Amman Governorate|Amman||Jordan Data Communications Company LLC|Black List: No|Use Type: Residential
152.53.170.41:29641:DVSpe2Un4V:LZ9DZge|88.12.179.69|Spain|Madrid|Rivas-Vaciamadrid|28521|Telefonica de Espana SAU|Black List: No|Use Type: Residential
91.98.38.205:34179:DVSu69ODlF:jPp5iGt|82.192.139.52|Italy|Lombardy|Ponte San Pietro|24036|Nordit ApS|Black List: No|Use Type: Residential
152.53.170.41:29641:DVS8bCBjix:mpDeiyB|193.152.118.80|Spain|Catalonia|Castellbisbal|08755|Telefonica De Espana S.A.U.|Black List: No|Use Type: Residential
152.53.170.41:29641:DVS4budqeH:y8a47TU|92.246.83.39|Spain|Murcia|Santomera|30140|Fibranet Tecnología Santomera|Black List: No|Use Type: Residential
91.98.38.205:34179:DVSlObyZGj:dgSTWPS|196.176.167.19|Tunisia|Manouba|Manouba||ooredoo TN|Black List: No|Use Type: Residential
91.98.38.205:34179:DVSq94Dbkp:KjoWm33|196.176.174.95|Tunisia|Manouba|Manouba||ooredoo TN|Black List: No|Use Type: Residential
162.55.188.17:41169:DVStLVJwTu:oDPW6B6|Unknown|Unknown|Unknown|Unknown|Unknown|Unknown|Black List: No|Use Type: Residential
91.98.38.205:34179:DVSyWR2lJs:Mln57hU|197.1.128.175|Tunisia|Tunis Governorate|Tunis||TOPNET|Black List: No|Use Type: Residential
152.53.170.41:29641:DVSKOkJ7Sj:9VyVf8R|46.136.44.143|Spain|Andalusia|Rincón de la Victoria|29730|Vodafone Espana S.A.U.|Black List: No|Use Type: Residential
162.55.188.17:41169:DVSIGlOR3Q:oQkMOy4|46.185.180.15|Jordan|Amman Governorate|Amman||Jordan Data Communications Company LLC|Black List: No|Use Type: Residential
162.55.188.17:41169:DVSwppgT1U:dwXdw8u|Unknown|Unknown|Unknown|Unknown|Unknown|Unknown|Black List: No|Use Type: Residential
152.53.170.41:29641:DVSy5dCLzc:R93X4pU|178.239.250.39|Spain|Andalusia|Brenes|41310|TVHORADADACONCISA|Black List: No|Use Type: Residential
91.98.38.205:34179:DVSptNsNtk:GW6QYkF|128.127.117.50|Romania|București|Bucharest|032982|Orange Romania Network|Black List: No|Use Type: Residential
152.53.170.41:29641:DVShVsJm38:mmPe4Nn|47.60.34.245|Spain|Madrid|Madrid|28047|Vodafone Global Enterprise Inc.|Black List: No|Use Type: Residential
162.55.188.17:41169:DVSqpzYulT:45SH5V7|Unknown|Unknown|Unknown|Unknown|Unknown|Unknown|Black List: No|Use Type: Residential
91.98.38.205:34179:DVSXcFgvR1:Obu2APk|95.216.139.11|Finland|Uusimaa|Helsinki|00201|Hetzner Online GmbH|Black List: No|Use Type: Residential
91.98.38.205:34179:DVSdBw3z3o:RcTJafa|84.251.187.90|Finland|Southwest Finland|Turku|20320|Telia Finland Oyj|Black List: No|Use Type: Residential
91.98.38.205:34179:DVS8qfrJrH:OSvfJDQ|65.21.190.106|Finland|Uusimaa|Helsinki|00201|Hetzner Online GmbH|Black List: No|Use Type: Residential
91.98.38.205:34179:DVSQBfDhCV:QvHTs6z|109.59.139.224|Denmark|Capital Region|Copenhagen|1610|Hi3G Access AB|Black List: No|Use Type: Residential
91.98.38.205:34179:DVSJwFzbp5:8myISSN|37.27.84.204|Finland|Uusimaa|Helsinki|00201|Hetzner Online GmbH|Black List: No|Use Type: Residential
91.98.38.205:34179:DVSjkBSlg5:iKenvEg|217.65.139.252|Spain|Madrid|Madrid||SpaceX Starlink|Black List: No|Use Type: Residential
162.55.188.17:41169:DVSWaXSOwT:9oyvAPA|45.234.28.112|Brazil|Federal District|Brasília|70640|Brasilianet Provedor De Internet Ltda|Black List: No|Use Type: Residential
46.224.87.167:33047:DVSAAxSq3v:8YsXEBA|170.231.234.163|Brazil|São Paulo|São Paulo|01000|Giga Mais Fibra Telecomunicacoes S.A.|Black List: No|Use Type: Residential
91.98.38.205:34179:DVSi3dWK4S:usgmZAQ|188.53.230.147|Saudi Arabia|Mecca Region|Jeddah||Saudinet DSL|Black List: No|Use Type: Residential
162.55.188.17:41169:DVShoYHIHc:7qraylm|179.73.149.192|Brazil|São Paulo|São Paulo|01000|TIM S/A|Black List: No|Use Type: Residential
162.55.188.17:41169:DVS6FncJ9l:XkC5U2h|45.228.97.192|Brazil|Rio de Janeiro|Rio de Janeiro|24000|Fale NET Servicos De Comunicacao Ltda - ME|Black List: No|Use Type: Residential
91.98.38.205:34179:DVS8tev8eQ:Hl300qR|95.219.213.25|Saudi Arabia|Medina Region|Medina||Saudi Telecom Company JSC|Black List: No|Use Type: Residential
91.98.38.205:34179:DVSrnz6eHD:TieOtfp|51.36.51.60|Saudi Arabia|Riyadh Region|Riyadh|09848|Mobile Telecommunication Company Saudi Arabia Joint-Stock company|Black List: No|Use Type: Cellular
91.98.38.205:34179:DVS2i5aKnL:9qhCZrA|51.252.185.98|Saudi Arabia|Riyadh Region|Riyadh|09848|Saudinet|Black List: No|Use Type: Residential
91.98.38.205:34179:DVScH90gEc:tmZVL80|128.234.123.163|Saudi Arabia|Eastern Province|Dammam||STC MBB|Black List: No|Use Type: Residential
91.98.38.205:34179:DVS0groxRk:iJqDBwK|186.232.234.7|Brazil|Bahia|Maracás|45360|ABM INFORMATICA E TELECOM|Black List: No|Use Type: Residential
162.55.188.17:41169:DVSvgy5DGU:nZus6Y1|170.238.191.172|Brazil|Rio de Janeiro|Bom Jesus do Itabapoana|28360|Prestel Servicos Eireli|Black List: No|Use Type: Residential
91.98.38.205:34179:DVShNvjzKi:lHs4WoT|169.148.39.174|Saudi Arabia|Mecca Region|Jeddah||Saudi Telecom Company JSC|Black List: No|Use Type: Residential
152.53.170.41:29641:DVSKqYjztj:dALOzVx|154.213.163.124|Germany|State of Berlin|Berlin|10178|3xK Tech GmbH|Black List: No|Use Type: Residential
162.55.188.17:41169:DVSvTK7L9e:sVNO92Q|179.182.1.31|Brazil|Alagoas|Maceió|57000|TELEFÔNICA BRASIL S.A|Black List: No|Use Type: Residential
152.53.170.41:29641:DVSD1XQTRy:D38ymXv|185.203.123.213|Germany|North Rhine-Westphalia|Welver|59514|VSE NET GmbH|Black List: No|Use Type: Residential
152.53.170.41:29641:DVS95CqKo7:RmBvwz4|65.111.28.136|Italy|Lazio|Rome|00124|3xK Tech GmbH|Black List: No|Use Type: Residential
152.53.170.41:29641:DVSL4lUv4M:D5zUMI7|65.111.31.26|France|Île-de-France|Paris|75001|3xK Tech GmbH|Black List: No|Use Type: Residential
152.53.170.41:29641:DVSp9kUhLn:5tMWHSj|24.84.144.216|Canada|British Columbia|Vancouver|V5L|Shaw Communications|Black List: No|Use Type: Residential
152.53.170.41:29641:DVScQD5fWK:oBAbgyX|75.156.128.153|Canada|Alberta|Calgary|T2Z|TELUS Communications Inc|Black List: No|Use Type: Residential
152.53.170.41:29641:DVSBvSbnjf:x0Vjxbt|98.97.84.3|United States|Texas|Dallas||Space Exploration Technologies Corporation|Black List: No|Use Type: Residential
152.53.170.41:29641:DVSPRJCTVL:CmlXXLE|76.143.216.136|United States|Texas|Houston|77073|Comcast Cable Communications, LLC|Black List: No|Use Type: Residential
152.53.170.41:29641:DVSFs5nMdk:ok1oI3V|86.168.72.102|United Kingdom|England|Worthing|BN12|BT Public Internet Service|Black List: No|Use Type: Residential
152.53.170.41:29641:DVSrvhznAR:Xpjkt7W|142.116.204.91|Canada|Ontario|Toronto|M6K|Bell Canada|Black List: No|Use Type: Residential
91.99.134.73:45559:DVS8W6o1P1:433tGgT|117.250.73.126|India|Jharkhand|Dhanbad|826004|BSNL Internet|Black List: No|Use Type: Residential
152.53.170.41:29641:DVSE6yUIcd:eYpDCtd|76.236.128.245|United States|Florida|Jacksonville|32256|AT&T Enterprises, LLC|Black List: No|Use Type: Residential
46.224.87.167:33047:DVS5KEv6DT:3OGB1E6|190.218.11.115|Panama|Provincia de Panamá|Panama City|34002|Cable Onda|Black List: No|Use Type: Residential
152.53.170.41:29641:DVSnk2ftpZ:SGo7cLR|109.156.225.160|United Kingdom|England|Penkridge|ST19|BT Public Internet Service|Black List: No|Use Type: Residential
152.53.170.41:29641:DVS8RJIOtd:5uhCAXa|173.63.189.21|United States|New Jersey|Toms River|08753|Verizon Business|Black List: No|Use Type: Residential
152.53.170.41:29641:DVS6CLwoFc:OkYRPsd|47.199.85.250|United States|Florida|Sarasota|34232|Frontier Communications Solutions|Black List: No|Use Type: Residential
162.55.188.17:41169:DVSwhEINba:EJrkGkY|177.71.107.134|Brazil|Rio de Janeiro|Nova Iguaçu|26030|Play Fibra Servicos De Internet Ltda|Black List: No|Use Type: Residential
46.224.87.167:33047:DVSYrfI7Ye:bfhAtPD|185.53.228.227|Kyrgyzstan|Gorod Bishkek|Bishkek||Saimanet Telecomunications CJSC|Black List: No|Use Type: Residential
152.53.170.41:29641:DVSrjZpxYY:9kOomxk|93.192.150.200|Germany|North Rhine-Westphalia|Wuppertal|42109|Deutsche Telekom AG|Black List: No|Use Type: Residential
46.224.87.167:33047:DVSuXRHuYc:y5oEJ7z|201.141.19.21|Mexico|Mexico City|Miguel Hidalgo|11000|Cablevisión, S.A. de C.V.|Black List: No|Use Type: Residential
152.53.170.41:29641:DVSWbs6wvB:i1xn6bR|174.63.164.215|United States|Florida|The Villages|32162|Comcast Cable Communications|Black List: No|Use Type: Residential
162.55.188.17:41169:DVSEdLDEIR:lEH4t2l|45.233.86.245|Brazil|Rio Grande do Norte|Alto do Rodrigues|59507|G & N SERVICOS DE COMUNICACAO E MULTIMIDIA LTDA|Black List: No|Use Type: Residential
46.224.87.167:33047:DVSQKUhtal:LSWGmm5|91.73.112.31|United Arab Emirates|Dubai|Dubai||Emirates Integrated Telecommunications Company PJSC|Black List: No|Use Type: Residential
162.55.188.17:41169:DVS90OyFKf:dzcNFam|93.40.226.149|Italy|Campania|Salerno|84122|Fastweb Networks|Black List: No|Use Type: Residential
162.55.188.17:41169:DVSRas87iF:5B6DD3L|213.225.32.73|Austria|Vienna|Vienna|1230|A1 Telekom Austria AG|Black List: No|Use Type: Residential
46.224.87.167:33047:DVSLhGYvL0:8qLibcC|37.75.126.225|Moldova|Chișinău Municipality|Chisinau|MD-2000|JSC "Moldtelecom" S.A.|Black List: No|Use Type: Residential
46.224.87.167:33047:DVSixA2Jfo:Dgi5Vxn|190.110.34.69|Dominican Republic|Santiago Province|Santiago de los Caballeros|51000|WIRELESS MULTI SERVICE VARGAS CABRERA, S. R. L|Black List: No|Use Type: Cellular
162.55.188.17:41169:DVSKMvFV4R:WbhjtKl|92.96.226.120|United Arab Emirates|Emirate of Sharjah|Sharjah||Emirates Telecommunications Corporation|Black List: No|Use Type: Residential
162.55.188.17:41169:DVSU0xjTFY:lq9Oj0G|86.108.0.82|Jordan|Irbid|Irbid||Jordan Telecom Group ( Orange)|Black List: No|Use Type: Residential
162.55.188.17:41169:DVSaod0BHF:NXZckcr|Unknown|Unknown|Unknown|Unknown|Unknown|Unknown|Black List: No|Use Type: Residential
46.224.87.167:33047:DVSQhMnFUS:96L3dg4|45.184.63.186|Brazil|Bahia|Baianópolis|47830|MM TELECOM|Black List: No|Use Type: Residential
152.53.170.41:29641:DVSz59diyj:GOoWj2h|170.203.167.57|United States|Indiana|Elkhart|46514|Surf Air Wireless, LLC|Black List: No|Use Type: Cellular
152.53.170.41:29641:DVS71sP2ye:6RSMFuH|74.140.98.52|United States|Ohio|Newark|43055|Charter Communications|Black List: No|Use Type: Residential
152.53.170.41:29641:DVSkfJiDC1:oLsF6Ei|Unknown|Unknown|Unknown|Unknown|Unknown|Unknown|Black List: No|Use Type: Residential
91.98.38.205:34179:DVSBGJkfUB:dzdUBFM|84.193.83.217|Belgium|Flanders|Sint-Truiden|3800|Telenet BV|Black List: No|Use Type: Residential
152.53.170.41:29641:DVSdzM1dtK:UVMcpxH|73.171.87.114|United States|Virginia|Richmond|23234|Comcast Cable Communications|Black List: No|Use Type: Residential
152.53.170.41:29641:DVSxjAVfaJ:8928cPE|170.203.115.212|United States|Texas|Sugar Land|77479|Ezee Fiber|Black List: No|Use Type: Residential
152.53.170.41:29641:DVSJvXVVrq:afLbdS7|152.117.103.7|United States|Florida|Tallahassee|32303|Metronet|Black List: No|Use Type: Residential
91.98.38.205:34179:DVSRu528zB:bxAw1AW|88.212.16.59|Slovakia|Košice Region|Košice|040 01|ANTIK Telecom s.r.o.|Black List: No|Use Type: Residential
91.98.38.205:34179:DVS5vmE7So:qGSgXkC|37.186.51.37|Qatar|Baladīyat ad Dawḩah|Doha||Vodafone Qatar Q.S.C|Black List: No|Use Type: Residential
152.53.170.41:29641:DVSV7LxgHH:Mlw66uO|35.151.9.117|United States|Alabama|Montevallo|35115|Charter Communications|Black List: No|Use Type: Residential
152.53.170.41:29641:DVSMC4l5YM:57cyUJP|191.96.36.133|Canada|Ontario|Toronto|M5A|Cogent Communications|Black List: No|Use Type: Residential
152.53.170.41:29641:DVS8eCIdTt:K8IebJd|98.188.186.46|United States|Nevada|Las Vegas|89183|Cox Communications Inc.|Black List: No|Use Type: Residential
162.55.188.17:41169:DVSrvImBpq:NTFnu3W|93.34.192.82|Italy|Lombardy|Somma Lombardo|21019|Fastweb Networks|Black List: No|Use Type: Residential
152.53.170.41:29641:DVSHWWkzTa:cFqNmXP|75.53.179.169|United States|California|Modesto|95355|AT&T Enterprises, LLC|Black List: No|Use Type: Residential
152.53.170.41:29641:DVSGDtBRy2:n7IgHM5|216.145.66.207|United States|Virginia|Jonesville|24263|MOUNTAINET|Black List: No|Use Type: Residential
152.53.170.41:29641:DVS9O27E5B:9P4xb2l|172.56.219.237|United States|Pennsylvania|Philadelphia|19144|T-Mobile USA, Inc.|Black List: No|Use Type: Cellular
152.53.170.41:29641:DVSuNrBxVN:V8NVpca|92.41.158.96|United Kingdom|England|Newham|E13|Hutchison 3G UK Ltd|Black List: No|Use Type: Residential
91.98.38.205:34179:DVS24R5Vmm:FkHr5e4|81.166.52.66|Norway|Rogaland|Kopervik|4250|Altibox|Black List: No|Use Type: Residential
162.55.188.17:41169:DVS8dINAKO:xzw4478|138.204.210.54|Brazil|São Paulo|Guarulhos|07000|Giga Mais Fibra Telecomunicacoes S.A.|Black List: No|Use Type: Residential
152.53.170.41:29641:DVSsGWXShz:37xj38v|68.84.194.207|United States|Arizona|Tucson|85742|Comcast Cable Communications, LLC|Black List: No|Use Type: Residential
152.53.170.41:29641:DVSBY3P0uh:X3Pt7T2|136.59.129.176|United States|Utah|Salt Lake City|84106|Google Fiber Inc.|Black List: No|Use Type: Residential
162.55.188.17:41169:DVSfsSg1h4:vOHJn9O|87.2.217.154|Italy|Lombardy|Trezzano sul Naviglio|20090|Telecom Italia S.p.A. TIN EASY LITE|Black List: No|Use Type: Residential
162.55.188.17:41169:DVSQLDIQyq:HbSrlZp|151.56.242.113|Italy|Apulia|Bari|70128|INFOSTRADA|Black List: No|Use Type: Residential
162.55.188.17:41169:DVSO38r6Qa:bqotpm8|188.217.51.36|Italy|Tuscany|Florence|50127|Vodafone|Black List: No|Use Type: Residential
91.98.38.205:34179:DVSTcD4B4A:VqxWACG|95.87.68.107|Kyrgyzstan|Gorod Bishkek|Bishkek||NUR Telecom LLC|Black List: No|Use Type: Residential
91.98.38.205:34179:DVSHHs7WhR:PPbc4yp|185.181.41.72|Moldova|Drochia|Drochia|MD-5216|Societatea Comerciala Click-COM SRL|Black List: No|Use Type: Residential
91.98.38.205:34179:DVSkOKNn6O:F6Wbz2k|190.130.107.15|Colombia|Valle del Cauca Department|Cali|760001|Comcel S.A.|Black List: No|Use Type: Residential
162.55.188.17:41169:DVS55siRb7:0LycnkP|187.2.85.39|Brazil|São Paulo|Bragança Paulista|12900|Claro NXT Telecomunicacoes Ltda|Black List: No|Use Type: Residential
46.224.87.167:33047:DVSZNJJTxk:OCcdpmn|101.56.185.67|Italy|Abruzzo|Pescara|65100|Sky Italia|Black List: No|Use Type: Residential
46.224.87.167:33047:DVSHa8NAn9:WFNlyuC|81.56.91.99|Italy|Lombardy|Milano||Iliad Italia|Black List: No|Use Type: Residential
162.55.188.17:41169:DVS8QyEaWJ:9JypC2h|78.209.83.243|Italy|Lombardy|Milano||Iliad Italia|Black List: No|Use Type: Residential
162.55.188.17:41169:DVSXfabekV:EmouiOt|5.172.80.113|Italy|Lombardy|Brescia|25124|Intred S.P.A.|Black List: No|Use Type: Residential
162.55.188.17:41169:DVSCSjAJUO:guUpCKC|87.10.206.92|Italy|Tuscany|Uzzano|51010|Telecom Italia S.p.A. TIN EASY LITE|Black List: No|Use Type: Residential
152.53.170.41:29641:DVShm6oEPM:HPSKPu1|104.207.57.236|Germany|State of Berlin|Berlin|10178|3xK Tech GmbH|Black List: No|Use Type: Residential
91.98.38.205:34179:DVSL5kmPUj:Kah5WXB|41.75.69.43|Republic of the Congo|Brazzaville|Brazzaville||GVA-Congo69|Black List: No|Use Type: Residential
152.53.170.41:29641:DVSFkSmASS:wKj6V4m|65.111.31.0|France|Île-de-France|Paris|75001|3xK Tech GmbH|Black List: No|Use Type: Residential
152.53.170.41:29641:DVSRiSWyu2:gxr0BnY|91.168.72.159|France|Occitanie|Toulouse|31000|Free|Black List: No|Use Type: Residential
152.53.170.41:29641:DVSWBv6D8s:GiZVTTD|72.249.227.67|United States|Colorado|Mancos|81328|FastTrack Communications Inc|Black List: No|Use Type: Residential
162.55.188.17:41169:DVS0IqJahS:BzsSfLS|84.221.242.67|Italy|Lombardy|Milan|20154|Tiscali Italia SpA|Black List: No|Use Type: Residential
152.53.170.41:29641:DVSPeoq2d9:dVEZwcM|216.26.245.14|Germany|State of Berlin|Berlin|10178|3xK Tech GmbH|Black List: No|Use Type: Residential
152.53.170.41:29641:DVSSsuyfMW:anouAdB|88.190.210.72|France|Nouvelle-Aquitaine|Angoulême|16000|Free SAS|Black List: No|Use Type: Residential
46.224.87.167:33047:DVSZqtzgOU:iw1Ldmj|177.203.69.53|Brazil|Rio Grande do Sul|Porto Alegre|90000|V tal|Black List: No|Use Type: Residential
162.55.188.17:41169:DVSb8KquRz:3lI1VlP|45.71.111.77|Brazil|Bahia|Ilhéus|45650|Sigaon Servicos Telecomunicacoes Eirele|Black List: No|Use Type: Residential
162.55.188.17:41169:DVSbjLRlXE:EGHvYrO|168.227.59.61|Brazil|São Paulo|Santa Fé do Sul|15775|RF Connect Provedor de Acesso LTDA|Black List: No|Use Type: Residential
91.98.38.205:34179:DVSTLiffOm:XIZGGXg|151.25.182.77|Italy|Lazio|Rome|00125|INFOSTRADA|Black List: No|Use Type: Residential
46.224.87.167:33047:DVSKvVJspM:RQsUYrZ|201.131.171.97|Brazil|Paraná|Terra Roxa|85990|K L M SERVICOS DE TELECOMUNICACOES LTDA|Black List: No|Use Type: Residential
46.224.87.167:33047:DVSC3yOW6V:SzY2rpE|45.231.38.83|Brazil|Rio de Janeiro|Duque de Caxias|25065|AC INTERNET E SERVIÇOS LTDA ME|Black List: No|Use Type: Residential
162.55.188.17:41169:DVSLAcwzoL:7SPBz3V|143.202.224.38|Brazil|Goiás|Morrinhos|75650|FP Telecomunicacoes Ltda|Black List: No|Use Type: Residential
162.55.188.17:41169:DVSJworHbx:UhHcgcU|177.71.31.93|Brazil|São Paulo|Monte Alto|15910|Invista Net Provedor de Acesso Ltda|Black List: No|Use Type: Residential
91.98.38.205:34179:DVSHKuPKDv:YOMRVi4|78.58.157.231|Lithuania|Vilnius|Vilnius|03501|Telia Lietuva|Black List: No|Use Type: Residential
91.98.38.205:34179:DVShgjWkK7:xyh4rCo|45.228.93.11|Brazil|Mato Grosso|Vila Bela da Santíssima Trindade|78245|Infotec Internet E Telecomunicacoes Ltda|Black List: No|Use Type: Residential
91.98.38.205:34179:DVSwbKzLAc:rwjH6hU|78.84.18.252|Latvia|Jūrmala|Jūrmala|LV-2008|LATTELEKOM|Black List: No|Use Type: Residential
91.98.38.205:34179:DVSlxOk4sl:2uCwS2U|78.62.194.109|Lithuania|Kaunas|Kaunas|51001|Telia Lietuva|Black List: No|Use Type: Residential
162.55.188.17:41169:DVSBrKfGBi:CsMAlWm|179.95.196.37|Brazil|Espírito Santo|Linhares|29900|Vivo|Black List: No|Use Type: Residential
91.98.38.205:34179:DVSjl43kD1:aUX7Mj8|77.38.137.49|Latvia|Rīga|Riga|LV-1063|SIA "BITE Latvija"|Black List: No|Use Type: Residential
91.98.38.205:34179:DVS6OrHeJR:bBnPMYy|83.99.137.90|Latvia|Rīga|Riga|LV-1063|LVBALTICOM|Black List: No|Use Type: Residential
91.98.38.205:34179:DVSyyC2XTX:FU7opMi|90.131.38.22|Lithuania|Vilnius|Vilnius|07004|TELE2/ SWIPNET|Black List: No|Use Type: Residential
91.98.38.205:34179:DVSjckP8l4:ZQqP3Ep|87.110.78.119|Latvia|Daugavpils|Daugavpils|LV-5417|LATTELEKOM|Black List: No|Use Type: Residential
46.224.87.167:33047:DVSFYBC1ni:JxcZreV|196.75.105.199|Morocco|Rabat-Salé-Kénitra|Rabat||ADSL Maroc telecom|Black List: No|Use Type: Residential
46.224.87.167:33047:DVSNTGSgpE:NO737H4|115.135.24.78|Malaysia|Kuala Lumpur|Kuala Lumpur|57000|TM TECHNOLOGY SERVICES SDN BHD|Black List: No|Use Type: Residential
46.224.87.167:33047:DVSpLrBJjl:fkzD44H|180.75.44.221|Malaysia|Penang|Bukit Mertajam|14000|TM TECHNOLOGY SERVICES SDN BHD|Black List: No|Use Type: Residential
46.224.87.167:33047:DVS0JvESN0:oxYewCZ|175.143.58.100|Malaysia|Sarawak|Kuching|93250|Telekom Malaysia Berhad|Black List: No|Use Type: Residential
46.224.87.167:33047:DVSESxLbGI:ixSq8N8|105.74.4.135|Morocco|Tanger-Tetouan-Al Hoceima|Tangier||Provider 36884 Wana Corporate|Black List: No|Use Type: Residential
46.224.87.167:33047:DVS8d81bxK:5UEAbDF|196.89.240.11|Morocco|Tanger-Tetouan-Al Hoceima|Tétouan||ADSL Maroc telecom|Black List: No|Use Type: Residential
91.98.38.205:34179:DVSCvqXfCH:gUqp6Dw|180.74.67.216|Malaysia|Selangor|Petaling Jaya|46000|TM TECHNOLOGY SERVICES SDN BHD|Black List: No|Use Type: Residential
46.224.87.167:33047:DVSPePR0EC:wkWUm4K|45.170.225.211|Nicaragua|Managua Department|Managua||EMPRESA NACIONAL DE TRANSMISIÓN ELÉCTRICA|Black List: No|Use Type: Residential
91.98.38.205:34179:DVSAmIlCau:wJxAaQz|45.219.190.65|Morocco|Fès-Meknès|Ouislane||Mobile Costumers|Black List: No|Use Type: Cellular
91.98.38.205:34179:DVS9GsTRQA:jDwKvTd|52.232.30.128|Netherlands|North Holland|Amsterdam|1047|Microsoft Corporation|Black List: No|Use Type: Residential
91.98.38.205:34179:DVSrX1WUcc:SHNnKmI|83.82.83.227|The Netherlands|Limburg|Landgraaf|6372|Vodafone Ziggo|Black List: No|Use Type: Residential
91.98.38.205:34179:DVSvlthTOT:TQYYYTy|196.120.227.247|Morocco|Casablanca-Settat|Casablanca||MEDITELECOM|Black List: No|Use Type: Residential
91.98.38.205:34179:DVSYX9Idqb:BfOnSH2|105.158.39.146|Morocco|Fès-Meknès|Fes||ADSL Maroc telecom|Black List: No|Use Type: Residential
91.98.38.205:34179:DVSbp7hCpV:bfbheJt|196.81.60.232|Morocco|Fès-Meknès|Fes||RABAT 4G MarocTelecom|Black List: No|Use Type: Cellular
91.98.38.205:34179:DVStHH9zDo:dklgEVM|62.45.119.95|The Netherlands|South Holland|The Hague|2548|DELTA Fiber Nederland|Black List: No|Use Type: Residential
91.98.38.205:34179:DVSq5HC9z6:zxUS2Lh|118.92.184.166|New Zealand|Auckland|Auckland|1010|One New Zealand Group Limited|Black List: No|Use Type: Residential
91.98.38.205:34179:DVSXO4zwmX:diNPc2Z|165.98.19.10|Nicaragua|León Department|Telica||EMPRESA NACIONAL DE TRANSMISIÓN ELÉCTRICA|Black List: No|Use Type: Residential
91.98.38.205:34179:DVSbbPYJDQ:LvhIpVo|125.238.38.119|New Zealand|Canterbury|Christchurch|8041|Spark New Zealand Trading Ltd|Black List: No|Use Type: Residential
91.98.38.205:34179:DVSzzc7CbP:UP9u8kf|212.56.48.62|The Netherlands|Drenthe|Emmen|7828|GTT Communications Inc.|Black List: No|Use Type: Residential
162.55.188.17:41169:DVS7o8w1lI:nefwql9|84.242.45.122|Oman|Muscat|Muscat|135|Awaser Oman LLC|Black List: No|Use Type: Residential
162.55.188.17:41169:DVSjGusucT:FCm24D7|5.37.248.83|Oman|Muscat|Muscat||OmanMobile Telecommunication company LLC|Black List: No|Use Type: Cellular
91.98.38.205:34179:DVSOuTIJ9I:emYo2gG|77.161.251.29|The Netherlands|North Holland|Amsterdam|1103|KPN N.V.|Black List: No|Use Type: Residential
46.224.87.167:33047:DVSwB5TRfX:4nFRFjW|46.244.78.44|Palestinian Territory|West Bank|Ramallah||Olympus|Black List: No|Use Type: Residential
162.55.188.17:41169:DVSKoezCjm:0aVm294|188.66.212.25|Oman|Muscat|Seeb||Nawras ISP (Oman)|Black List: No|Use Type: Residential
162.55.188.17:41169:DVShfvhHRL:4P6jSqt|5.21.140.234|Oman|Muscat|Seeb||Nawras ISP (Oman)|Black List: No|Use Type: Residential
91.98.38.205:34179:DVSEJRuJbB:SrV43ct|197.211.63.188|Nigeria|Lagos|Lagos||Globacom Limited|Black List: No|Use Type: Residential
46.224.87.167:33047:DVSPzfS10U:doOFofN|201.218.238.202|Panama|Provincia de Panamá|Panama City|34002|Cable Onda|Black List: No|Use Type: Residential
91.98.38.205:34179:DVSB0aWI82:wdHdGX2|205.147.17.11|Norway|Oslo County|Oslo|0010|Proton AG|Black List: No|Use Type: Residential
91.98.38.205:34179:DVSh4gDkGf:8GHXWnm|74.244.12.129|Niger|Niamey|Niamey||Space Exploration Technologies Corporation|Black List: No|Use Type: Residential
162.55.188.17:41169:DVStUdIsXc:kEgVM0l|85.154.143.81|Oman|Dhofar|Salalah||GTO-OMAN|Black List: No|Use Type: Residential
91.98.38.205:34179:DVSRFUi5Ax:HJ5IzZi|38.253.193.140|Oman|Muscat|Muscat|135|Awaser Oman LLC|Black List: No|Use Type: Residential
46.224.87.167:33047:DVSoRviYZL:i1Si6mx|116.90.114.21|Pakistan|Sindh|Karachi|74000|FIBERISH (PVT) LTD|Black List: No|Use Type: Residential
91.98.38.205:34179:DVSIzYrjAp:K7CyqFH|94.73.14.19|Israel|Jerusalem|Jerusalem||Mada Al-Arab General Services Company|Black List: No|Use Type: Residential
91.98.38.205:34179:DVS7fwgBHR:1Mt01fr|46.60.49.189|Palestine|Ramallah and al-Bireh Governorate|Ramallah||AL Zaytona Company For Communication Ltd.|Black List: No|Use Type: Residential
46.224.87.167:33047:DVSKtPEi0J:n6lI3kn|186.16.182.31|Paraguay|Asunción|Asunción||Telecel S.A.|Black List: No|Use Type: Residential
46.224.87.167:33047:DVScghuvlF:Pk9rBTV|186.158.200.249|Paraguay|Central Department|Fernando de la Mora||Techtel LMDS Comunicaciones Interactivas S.A.|Black List: No|Use Type: Residential
162.55.188.17:41169:DVSfm5Q2Wq:EufcaDo|200.121.141.156|Peru|Arequipa|Arequipa||Telefonica del Peru|Black List: No|Use Type: Residential
91.98.38.205:34179:DVSKGqDscQ:KuyuP74|77.91.189.190|Palestine|Ramallah and al-Bireh Governorate|Ramallah||paltel|Black List: No|Use Type: Cellular
91.98.38.205:34179:DVS0qruztG:gTnjOq3|186.72.166.195|Panama|Provincia de Panamá|Panama City|34002|Cable & Wireless Panama|Black List: No|Use Type: Residential
162.55.188.17:41169:DVSfbPAbui:gG69D9b|179.6.29.21|Peru|Lima Province|Lima||America Movil Peru S.A.C|Black List: No|Use Type: Residential
91.98.38.205:34179:DVScOYRG1N:SwUqM77|37.76.192.78|Israel|Judea and Samaria Area|Giv'on HaHadasha||Cronos-Block1|Black List: No|Use Type: Residential
91.98.38.205:34179:DVSNcWOqTF:vLfTTl7|190.123.229.14|Panama|Provincia de Panamá|Panama City|34002|Liberty Technologies Corp.|Black List: No|Use Type: Residential
91.98.38.205:34179:DVSGFXImkg:UTMdBM9|190.141.196.4|Panama|Provincia de Panamá|Panama City|34002|Cable Onda|Black List: No|Use Type: Residential
91.98.38.205:34179:DVS8IPlmDt:CW7xkeN|181.127.69.228|Paraguay|Asunción|Asunción||Telecel S.A.|Black List: No|Use Type: Residential
91.98.38.205:34179:DVS8ZmeIUy:fD9ZIo0|190.140.112.89|Panama|Provincia de Panamá|Panama City|34002|Cable Onda|Black List: No|Use Type: Residential
91.98.38.205:34179:DVSwjfwwNu:gfJPDrb|181.120.129.111|Paraguay|Asunción|Asunción||Telecel S.A.|Black List: No|Use Type: Residential
91.98.38.205:34179:DVSUIGlCjt:ELPBPfC|186.158.200.239|Paraguay|Central Department|Nemby||Techtel LMDS Comunicaciones Interactivas S.A.|Black List: No|Use Type: Residential
46.224.87.167:33047:DVS0BURNbv:jJqBJZQ|123.253.49.31|Philippines|Calabarzon|Dasmariñas|4114|Dasca Cable Services, Inc|Black List: No|Use Type: Residential
46.224.87.167:33047:DVSBEDpcsY:0tnf0ns|136.158.58.18|Philippines|Metro Manila|Makati City|1298|ComClark Network & Technology Corp|Black List: No|Use Type: Residential
91.98.38.205:34179:DVSwWWDa72:ZjAtCMI|5.43.197.238|Palestinian Territory|West Bank|Ramallah||Tartarus Network|Black List: No|Use Type: Residential
91.98.38.205:34179:DVSEXtnI6f:p6loFMq|91.230.99.132|Poland|Lesser Poland|Skawina|32-050|FIBERLINK Sp. z o.o.|Black List: No|Use Type: Residential
91.98.38.205:34179:DVS9wmgIg2:uqSep5c|185.136.92.82|Poland|Silesia|Będzin|42-500|Waclaw Piotr Labedz trading as P.H.U."CYBER GROTA"|Black List: No|Use Type: Residential
91.98.38.205:34179:DVScdJd4OV:Sf2S9iN|Unknown|Unknown|Unknown|Unknown|Unknown|Unknown|Black List: No|Use Type: Residential
46.224.87.167:33047:DVSQ0cNd4P:9yducye|176.202.204.161|Qatar|Baladīyat ad Dawḩah|Doha||Ooredoo Q.S.C.|Black List: No|Use Type: Residential
91.98.38.205:34179:DVSx2x5Gkt:m2o5PS1|188.246.155.60|Poland|Lesser Poland|Krakow|31-236|Toya sp.z.o.o|Black List: No|Use Type: Residential
91.98.38.205:34179:DVS3cZHvip:uIeiw6x|93.175.142.97|Poland|Lubusz|Różanki|66-415|KSU Provector Network|Black List: No|Use Type: Residential
91.98.38.205:34179:DVSrJj9amc:pViVoeI|178.235.184.129|Poland|Pomerania|Gdynia|81-314|Vectra S.A|Black List: No|Use Type: Residential
91.98.38.205:34179:DVSBgAcNAn:Pkc7I9p|109.196.9.35|Poland|Mazovia|Gostynin|09-500|MDI NETWORK|Black List: No|Use Type: Residential
91.98.38.205:34179:DVS8zQhwW5:CdQ0a13|89.76.33.156|Poland|Pomerania|Rumia|84-230|UPC.pl|Black List: No|Use Type: Residential
91.98.38.205:34179:DVSaBt1gCI:NRaT9a9|37.31.32.103|Poland|Lesser Poland|Krakow|31-031|T-Mobile Poland|Black List: No|Use Type: Cellular
91.98.38.205:34179:DVS0dApGCk:0n0Qctu|80.49.55.89|Poland|Lower Silesia|Wroclaw|51-630|Orange Polska SA|Black List: No|Use Type: Residential
91.98.38.205:34179:DVSG3zqrk5:0q2Xrwt|176.111.114.202|Poland|Łódź Voivodeship|Tomaszów Mazowiecki|97-202|Digi Com ISP Radoslaw Sikora|Black List: No|Use Type: Residential
91.98.38.205:34179:DVSQMTCQNV:HztJB5x|83.25.12.28|Poland|Pomerania|Gdansk|80-180|Orange Polska Spolka Akcyjna|Black List: No|Use Type: Residential
91.98.38.205:34179:DVS7v8OxIw:FbDlNYR|83.11.235.21|Poland|West Pomerania|Szczecin|71-698|Orange Polska Spolka Akcyjna|Black List: No|Use Type: Residential
91.98.38.205:34179:DVSw67FpIy:dYNWMGp|91.150.200.31|Poland|Silesia|Bytom|41-902|GHNET|Black List: No|Use Type: Residential
91.98.38.205:34179:DVSIjHbNvH:6srup9l|24.41.138.118|Puerto Rico|San Juan|San Juan|00901|Liberty Communications of Puerto Rico LLC|Black List: No|Use Type: Residential
91.98.38.205:34179:DVS73TpJ0V:CP2to4Z|70.45.68.19|Puerto Rico|Toa Baja|Sabana Seca||Liberty Communications of Puerto Rico LLC|Black List: No|Use Type: Residential
46.224.87.167:33047:DVS83hIXJZ:Os8oye9|37.186.42.141|Qatar|Baladīyat ad Dawḩah|Doha||Vodafone Qatar Q.S.C|Black List: No|Use Type: Residential
46.224.87.167:33047:DVS75BDlLx:cjBSk2z|37.106.5.194|Saudi Arabia|Mecca Region|Jeddah||Saudinet DSL|Black List: No|Use Type: Residential
46.224.87.167:33047:DVS29IuIBk:W2HRFO8|129.208.109.154|Saudi Arabia|Riyadh Region|Riyadh|09848|Saudi Telecom Company JSC|Black List: No|Use Type: Residential
46.224.87.167:33047:DVSDpHPAbV:VfA6Wdx|188.52.70.38|Saudi Arabia|Riyadh Region|Riyadh|09848|Saudinet DSL|Black List: No|Use Type: Residential
91.98.38.205:34179:DVShbcEatu:HUi21Al|89.64.12.47|Poland|Lower Silesia|Wroclaw|50-027|UPC.pl|Black List: No|Use Type: Residential
46.224.87.167:33047:DVSYuNpRjg:Vw6FWPf|5.163.56.46|Saudi Arabia|Medina Region|Medina||STC MBB|Black List: No|Use Type: Residential
46.224.87.167:33047:DVS23U7HQp:2AvDGXj|178.73.74.121|Saudi Arabia|Mecca Region|Jeddah||Bayanat Al-Oula Network Services|Black List: No|Use Type: Residential
91.98.38.205:34179:DVSP0X5CHZ:I51QXY2|37.209.147.99|Poland|Greater Poland|Poznan|61-827|Netia SA|Black List: No|Use Type: Residential
91.98.38.205:34179:DVSRlKVvM9:1r4unAp|79.119.128.193|Romania|Maramureş|Baia Mare|430066|RCS & RDS|Black List: No|Use Type: Residential
91.98.38.205:34179:DVSZYScY55:P7T7JYe|37.211.187.141|Qatar|Baladīyat ad Dawḩah|Doha||Ooredoo Q.S.C|Black List: No|Use Type: Residential
46.224.87.167:33047:DVSTb4JtvZ:7ruAIFZ|82.197.48.228|Saudi Arabia|Riyadh Region|Riyadh|09848|Mobile Telecommunication Company Saudi Arabia Joint-Stock company|Black List: No|Use Type: Cellular
91.98.38.205:34179:DVSnTQ33Bi:T3ov3va|72.50.2.221|Puerto Rico|Guaynabo|Guaynabo||DATACOM CARIBE, INC.|Black List: No|Use Type: Residential
91.98.38.205:34179:DVSOKKyUq4:8nA4bcE|24.50.235.4|Puerto Rico|Fajardo|Fajardo||Liberty Communications of Puerto Rico LLC|Black List: No|Use Type: Residential
46.224.87.167:33047:DVS7ft1vfP:NdzG6Ip|51.253.235.192|Saudi Arabia|Medina Region|Medina||Saudi Telecom Company JSC|Black List: No|Use Type: Residential
46.224.87.167:33047:DVSgG4JPXr:pqvvnWM|176.224.51.218|Saudi Arabia|Mecca Region|Jeddah||Internet Broadband|Black List: No|Use Type: Residential
46.224.87.167:33047:DVSut09oUh:YBEmHnB|176.45.4.245|Saudi Arabia|Riyadh Region|Riyadh|09848|Saudinet|Black List: No|Use Type: Residential
46.224.87.167:33047:DVS3LhEzfE:bEzDlkr|51.36.219.77|Saudi Arabia|Mecca Region|Jeddah||Mobile Telecommunication Company Saudi Arabia Joint-Stock company|Black List: No|Use Type: Cellular
91.98.38.205:34179:DVSzRjNgjI:PEaE7cM|188.54.83.122|Saudi Arabia|Riyadh Region|Riyadh|09848|Saudinet|Black List: No|Use Type: Residential
46.224.87.167:33047:DVSE7WgPXu:e8L83VL|51.235.177.135|Saudi Arabia|Eastern Province|Dammam||STC MBB|Black List: No|Use Type: Residential
46.224.87.167:33047:DVSen4QBrq:zGXJkMT|196.207.231.50|Senegal|Dakar|Dakar||SONATEL-AS Autonomous System|Black List: No|Use Type: Residential
91.98.38.205:34179:DVSYJIRcfX:NqRIKyG|77.90.212.237|Saudi Arabia|Mecca Region|Jeddah||Saudi Telecom Company JSC|Black List: No|Use Type: Residential
46.224.87.167:33047:DVSgyIKUEm:f2YhnOj|Unknown|Unknown|Unknown|Unknown|Unknown|Unknown|Black List: No|Use Type: Residential
46.224.87.167:33047:DVSwmYcO5U:CLo1JqC|196.207.227.46|Senegal|Dakar|Dakar||SONATEL-AS Autonomous System|Black List: No|Use Type: Residential
91.98.38.205:34179:DVSttfr8nj:5dbzYrT|82.167.213.145|Saudi Arabia|Eastern Province|Dammam||ORBITNET-Corporate|Black List: No|Use Type: Residential
46.224.87.167:33047:DVS0TxF2KW:CF4zytJ|109.245.169.87|Serbia|Belgrade|Belgrade||CETIN Ltd. Belgrade|Black List: No|Use Type: Residential
91.98.38.205:34179:DVScouRBVL:HEKdTYh|153.94.80.208|Saudi Arabia|Mecca Region|Jeddah||STC FBB|Black List: No|Use Type: Residential
91.98.38.205:34179:DVSuGgZL95:XOK0Wuk|139.64.110.116|Saudi Arabia|Eastern Province|Dammam||Saudi Telecom Company JSC|Black List: No|Use Type: Residential
91.98.38.205:34179:DVS2oykGIT:q7UzIbW|51.36.232.167|Saudi Arabia|Mecca Region|Jeddah||Mobile Telecommunication Company Saudi Arabia Joint-Stock company|Black List: No|Use Type: Cellular
91.98.38.205:34179:DVS5qEvijx:iUhZtWL|2.90.247.225|Saudi Arabia|Mecca Region|Jeddah||Saudinet|Black List: No|Use Type: Residential
91.98.38.205:34179:DVSWG08S0s:BFxM7TK|93.112.235.127|Saudi Arabia|Mecca Region|Jeddah||Saudi Telecom Company JSC|Black List: No|Use Type: Residential
91.98.38.205:34179:DVSijprkCw:WagOpxv|77.31.172.186|Saudi Arabia|Riyadh Region|Riyadh|09848|SaudiNet|Black List: No|Use Type: Residential
46.224.87.167:33047:DVSf7ydjki:q0OgDT3|109.93.197.127|Serbia|Belgrade|Belgrade||TELEKOM-SRBIJA|Black List: No|Use Type: Residential
46.224.87.167:33047:DVSHeUk7pP:y6PZ9Re|89.216.189.209|Serbia|Belgrade|Belgrade||Serbia Broadband|Black List: No|Use Type: Residential
91.98.38.205:34179:DVSP3SUEry:khWjSzf|196.207.222.213|Senegal|Dakar|Dakar||Sonatel|Black List: No|Use Type: Residential
91.98.38.205:34179:DVSAkC4N2w:ap1Tclr|2.90.70.156|Saudi Arabia|Mecca Region|Jeddah||Saudinet|Black List: No|Use Type: Residential
91.98.38.205:34179:DVSmFOr7A3:V78icoS|178.220.177.244|Serbia|Belgrade|Belgrade||TELEKOM-BB|Black List: No|Use Type: Residential
91.98.38.205:34179:DVSYp8daf9:L5rYUij|77.46.187.90|Serbia|Belgrade|Belgrade||TELEKOM-SRBIJA|Black List: No|Use Type: Residential
91.98.38.205:34179:DVSZ8yEm7t:GcKYTuC|93.87.27.134|Serbia|Vojvodina|Indjija||TELEKOM SRBIJA a.d.|Black List: No|Use Type: Residential
91.98.38.205:34179:DVSce6RCIo:MnOhXlj|87.244.212.141|Slovakia|Banská Bystrica Region|Banská Štiavnica|969 01|ENERGOTEL|Black List: No|Use Type: Residential
91.98.38.205:34179:DVS46x4qYm:9N6A0LK|95.103.61.9|Slovakia|Košice Region|Košice|040 01|Slovak Telekom, a.s.|Black List: No|Use Type: Residential
91.98.38.205:34179:DVS0vrguvX:GWBFQbm|178.40.171.40|Slovakia|Bratislava Region|Bratislava|811 03|Slovak Telecom AS6855|Black List: No|Use Type: Residential
91.98.38.205:34179:DVSuE8ApXq:ELumLmL|195.91.17.108|Slovakia|Trnava Region|Trnava|917 01|Slovak Telekom, a.s.|Black List: No|Use Type: Residential
91.98.38.205:34179:DVSmmxInKG:eOf6ggQ|178.143.37.110|Slovakia|Bratislava Region|Bratislava|821 09|Orange Slovensko a.s.|Black List: No|Use Type: Residential
91.98.38.205:34179:DVSQ5banw5:WlNZLCf|89.143.144.186|Slovenia|Litija|Litija|1270|SiOL.SI|Black List: No|Use Type: Residential
91.98.38.205:34179:DVSHFZT03H:N1weMyk|87.116.180.129|Serbia|Belgrade|Belgrade||Serbian BroadBand|Black List: No|Use Type: Residential
91.98.38.205:34179:DVSX93BHCg:MNm3Yak|88.212.19.124|Slovakia|Košice Region|Košice|040 01|ANTIK Telecom s.r.o.|Black List: No|Use Type: Residential
91.98.38.205:34179:DVSr5v6TqB:fV06P35|46.122.65.14|Slovenia|Ljubljana|Ljubljana|1000|A1 Slovenija telekomunikacijske storitve, d.d.|Black List: No|Use Type: Residential
91.98.38.205:34179:DVSQSR5YWi:vEZJnvf|178.143.40.172|Slovakia|Bratislava Region|Bratislava|811 02|Orange Slovensko|Black List: No|Use Type: Residential
91.98.38.205:34179:DVSIOPEu7g:ZrHU8gL|102.143.21.57|Sierra Leone|Western Area|Freetown||QCell (SL) Limited|Black List: No|Use Type: Residential
46.224.87.167:33047:DVSGaonNnv:m3KgOC7|41.56.215.223|South Africa|Western Cape|Cape Town|7405|RAIN GROUP HOLDINGS (PTY) LTD|Black List: No|Use Type: Residential
91.98.38.205:34179:DVS2kZNhh4:OyF8xfi|46.248.91.83|Slovenia|Mestna Občina Novo mesto|Novo Mesto|8000|T-2 d.o.o|Black List: No|Use Type: Residential
152.53.170.41:29641:DVStQIjCQT:sfPOwcO|185.125.28.43|Spain|Murcia|Cartagena|30310|Onlycable Comunicaciones S.L.|Black List: No|Use Type: Residential
91.98.38.205:34179:DVSDV0Kdz9:f8k7R4F|88.212.19.58|Slovakia|Košice Region|Košice|040 01|ANTIK Telecom s.r.o.|Black List: No|Use Type: Residential
152.53.170.41:29641:DVScMvk8bE:prFvuu8|188.26.215.19|Spain|Madrid|Madrid|28085|Digi Spain Telecom S.L.U.|Black List: No|Use Type: Residential
91.98.38.205:34179:DVSGGe57Sr:JugCyNW|41.56.130.140|South Africa|Western Cape|Cape Town|7500|RAIN GROUP HOLDINGS (PTY) LTD|Black List: No|Use Type: Residential
91.98.38.205:34179:DVSvfqOtbz:UC6DF0G|41.144.113.19|South Africa|KwaZulu-Natal|Durban|4001|Telkom SA Ltd.|Black List: No|Use Type: Residential
152.53.170.41:29641:DVSztXcJUL:dOObsmx|46.6.50.116|Spain|Valencia|Valencia|46015|XFERA Moviles S.A|Black List: No|Use Type: Residential
91.98.38.205:34179:DVSfTLlbb0:Td6Wffz|102.66.147.156|South Africa|Eastern Cape|Uitenhage|6229|HERO TELECOMS (PTY) LTD|Black List: No|Use Type: Residential
152.53.170.41:29641:DVSMMLutYr:hYkYqPz|2.155.236.94|Spain|Galicia|Vigo|36207|Vodafone Espana S.A.U.|Black List: No|Use Type: Residential
152.53.170.41:29641:DVSe2ofEL8:64VNlZ6|46.6.40.142|Spain|Catalonia|Barcelona|08027|XFERA Moviles S.A|Black List: No|Use Type: Residential
152.53.170.41:29641:DVSpXXA6Vo:PxUXFOm|79.117.217.199|Spain|Andalusia|Alhaurín el Grande|29120|Digi Spain Telecom S.L.U.|Black List: No|Use Type: Residential
46.224.87.167:33047:DVS8bVbDAc:gUrobfJ|197.185.210.214|South Africa|Gauteng|Midrand|1685|RAIN GROUP HOLDINGS (PTY) LTD|Black List: No|Use Type: Residential
91.98.38.205:34179:DVSZJuyUCY:YJ07LFg|78.72.202.8|Sweden|Stockholm County|Märsta|195 59|Telia Company AB|Black List: No|Use Type: Residential
91.98.38.205:34179:DVSAyvHTry:NAOydzb|213.112.68.193|Sweden|Västra Götaland County|Gothenburg|415 34|Telenor Sverige AB|Black List: No|Use Type: Residential
91.98.38.205:34179:DVSrriLMmU:xulf45n|78.71.122.158|Sweden|Västra Götaland County|Borås|504 55|Telia Company AB|Black List: No|Use Type: Residential
46.224.87.167:33047:DVSWf1pRxf:en6RY4N|5.0.47.140|Syria|Damascus Governorate|Damascus||ISP-TARASSUL|Black List: No|Use Type: Residential
91.98.38.205:34179:DVSHfrxjaR:5AzxMi5|78.82.125.168|Sweden|Stockholm County|Vällingby|162 55|Telenor Sverige AB|Black List: No|Use Type: Residential
91.98.38.205:34179:DVSeq39rwW:ppJGyFl|51.154.139.5|Switzerland|Zurich|Zurich|8052|Salt Mobile SA|Black List: No|Use Type: Cellular
91.98.38.205:34179:DVSlyEJ28K:4uG9f6y|92.104.121.139|Switzerland|Thurgau|Bischofszell|9220|Swisscom (Schweiz) AG - Bluewin|Black List: No|Use Type: Residential
91.98.38.205:34179:DVSlgdUV7W:trVYSQE|85.228.17.139|Sweden|Kalmar|Västervik|593 30|Bredbandsbolaget|Black List: No|Use Type: Residential
91.98.38.205:34179:DVS1mYz4wP:SptjjQ2|213.55.240.118|Switzerland|Zurich|Zurich|8050|Salt Mobile SA|Black List: No|Use Type: Cellular
91.98.38.205:34179:DVSleUlZwh:TbftvEs|77.57.217.241|Switzerland|Ticino|Bellinzona|6500|UPC Schweiz GmbH|Black List: No|Use Type: Residential
162.55.188.17:41169:DVSJSKl4JZ:uVUeP7w|197.254.68.14|Kenya|Kwale County|Diani Beach||ACCESSKENYA|Black List: No|Use Type: Residential
91.98.38.205:34179:DVSU9wNSK1:kxW6q20|84.226.233.154|Switzerland|Thurgau|Frauenfeld|8500|Sunrise GmbH|Black List: No|Use Type: Residential
91.98.38.205:34179:DVSutIve4t:kOYKCMD|193.43.140.112|Syria|Rif-dimashq|Ḩarastā||Syrian Telecom|Black List: No|Use Type: Residential
91.98.38.205:34179:DVSI9qSc4F:6xgO1hO|1.20.146.202|Thailand|Satun|Satun||TOT Public Company Limited|Black List: No|Use Type: Residential
162.55.188.17:41169:DVSXIzO04f:yTZstcT|88.243.199.195|Türkiye|Istanbul|Istanbul|34080|Turk Telekomunikasyon A.S|Black List: No|Use Type: Residential
91.98.38.205:34179:DVSRaidHey:5dO1huA|190.213.39.164|Trinidad and Tobago|San Juan/Laventille|San Juan||Columbus Communications Trinidad Limited.|Black List: No|Use Type: Residential
46.224.87.167:33047:DVS3dyr246:k75jr7O|85.98.186.112|Türkiye|Balıkesir|Panderma|10200|Turk Telekomunikasyon A.S|Black List: No|Use Type: Residential
91.98.38.205:34179:DVSREWom8q:YnrBD0H|Unknown|Unknown|Unknown|Unknown|Unknown|Unknown|Black List: No|Use Type: Residential
162.55.188.17:41169:DVSS2RWl3u:wHucUxS|194.177.14.71|Türkiye|İzmir Province|Izmir|35000|hiperonline iletisim hizmetleri san. tic. ltd. sti.|Black List: No|Use Type: Residential
91.98.38.205:34179:DVSYaYMfgG:X3InqYS|190.213.151.23|Trinidad and Tobago|Port of Spain|Port of Spain||Columbus Communications Trinidad Limited.|Black List: No|Use Type: Residential
91.98.38.205:34179:DVSwzhZIHe:c92sMqt|171.99.147.32|Thailand|Bangkok|Bangkok|10100|True Internet Corporation CO. Ltd.|Black List: No|Use Type: Residential
162.55.188.17:41169:DVS0smlKLw:mC7zZEN|105.165.217.210|Kenya|Nairobi County|Nairobi|00100|Safaricom Limited|Black List: No|Use Type: Residential
91.98.38.205:34179:DVSQeDcuft:6zPREJ2|197.240.83.202|Tunisia|Tunis Governorate|Tunis||TOPNET|Black List: No|Use Type: Residential
91.98.38.205:34179:DVStpIjRdB:7c9GUSr|176.121.5.184|Ukraine|Ivano-Frankivsk Oblast|Horodenka|78103|Zahidna Multyservisna Merezha, LLC|Black List: No|Use Type: Residential
91.98.38.205:34179:DVSIpdzaCP:vh16QHl|31.135.179.72|Ukraine|Zaporizhzhia|Zaporizhzhya|69000|Oleksii Sharienkov|Black List: No|Use Type: Residential
162.55.188.17:41169:DVSMG6htmP:Dky2Qsx|2.50.169.138|United Arab Emirates|Abu Dhabi|Al Ain City||Emirates Telecommunications Corporation|Black List: No|Use Type: Residential
91.98.38.205:34179:DVSmHTnPqa:7BX0gL3|31.223.31.127|Türkiye|Ankara|Ankara|06420|TurkNet Iletisim Hizmetleri|Black List: No|Use Type: Residential
162.55.188.17:41169:DVSG261gEQ:hspvFmx|92.99.7.40|United Arab Emirates|Abu Dhabi|Abu Dhabi||Emirates Telecommunications Corporation|Black List: No|Use Type: Residential
162.55.188.17:41169:DVSltf4zHi:1Ral7US|5.193.75.61|United Arab Emirates|Emirate of Sharjah|Sharjah||Emirates Telecommunications Corporation|Black List: No|Use Type: Residential
46.224.87.167:33047:DVSi8HX5T3:b3l1KFw|2.49.78.46|United Arab Emirates|Dubai|Dubai||Emirates Telecommunications Corporation|Black List: No|Use Type: Residential
46.224.87.167:33047:DVSjovPcbB:7pW6Lly|167.59.201.66|Uruguay|Montevideo Department|Montevideo|11800|Administracion Nacional de Telecomunicaciones|Black List: No|Use Type: Residential
91.98.38.205:34179:DVSut334XF:VdLd664|176.235.142.236|Turkey|Istanbul|Istanbul|34122|Superonline Iletisim Hizmetleri A.S.|Black List: No|Use Type: Residential
162.55.188.17:41169:DVS9kDna6U:xj1iCwi|86.97.159.48|United Arab Emirates|Emirate of Sharjah|Sharjah||EMIRATES TELECOMMUNICATIONS GROUP COMPANY (ETISALAT GROUP) PJSC|Black List: No|Use Type: Residential
46.224.87.167:33047:DVSYBDtmbB:X6uCg1z|167.58.116.50|Uruguay|Tacuarembó Department|Paso de los Toros||Administracion Nacional de Telecomunicaciones|Black List: No|Use Type: Residential
162.55.188.17:41169:DVSqjqBqyO:VZaugFd|109.177.203.47|United Arab Emirates|Dubai|Dubai||EMIRATES TELECOMMUNICATIONS GROUP COMPANY (ETISALAT GROUP) PJSC|Black List: No|Use Type: Residential
91.98.38.205:34179:DVSm394jpW:qxbM6Qs|197.17.107.92|Tunisia|Ariana Governorate|Aryanah||Ooredoo Tunisie SA|Black List: No|Use Type: Residential
46.224.87.167:33047:DVSInyCg88:00fYI7Y|167.58.88.221|Uruguay|Montevideo Department|Montevideo|11900|Administracion Nacional de Telecomunicaciones|Black List: No|Use Type: Residential
162.55.188.17:41169:DVSxcPwewB:DBL4y8u|82.215.90.66|Uzbekistan|Tashkent Region|Salor||JC LLC Sarkor-Telecom|Black List: No|Use Type: Residential
46.224.87.167:33047:DVSTIoTbdI:NnR9Xkd|167.56.224.18|Uruguay|Paysandú Department|Paysandú|60000|Administracion Nacional de Telecomunicaciones|Black List: No|Use Type: Residential
46.224.87.167:33047:DVSn8x70Qn:aIWFLRl|5.107.146.183|United Arab Emirates|Emirate of Sharjah|Sharjah||Emirates Telecommunications Corporation|Black List: No|Use Type: Residential
162.55.188.17:41169:DVSiLpWYxd:6cyW02X|94.158.60.107|Uzbekistan|Tashkent|Tashkent||Iplus LLC|Black List: No|Use Type: Residential
46.224.87.167:33047:DVSeiSXsBZ:QXvkgXg|167.62.53.39|Uruguay|Montevideo Department|Montevideo|11800|Administracion Nacional de Telecomunicaciones|Black List: No|Use Type: Residential
152.53.170.41:29641:DVSVrtvddM:SjoX22w|73.201.142.129|United States|Maryland|Odenton|21113|Comcast Cable Communications|Black List: No|Use Type: Residential
162.55.188.17:41169:DVS4LaNcHj:LBfaJok|200.118.60.116|Colombia|Bogota D.C.|Suba|111111|Telmex Colombia S.A.|Black List: No|Use Type: Business
152.53.170.41:29641:DVSO0HltbO:3za6ouR|68.252.220.147|United States|Georgia|Peachtree Corners|30092|AT&T Enterprises, LLC|Black List: No|Use Type: Residential
152.53.170.41:29641:DVSFHQLqzW:eaf2y5U|143.105.247.183|United States|Missouri|Kansas City||Space Exploration Technologies Corporation|Black List: No|Use Type: Residential
152.53.170.41:29641:DVSQmQxJTT:w1ueovH|166.181.81.220|United States|Iowa|Glidden|51443|T-Mobile USA, Inc.|Black List: No|Use Type: Cellular
162.55.188.17:41169:DVSgd40Cj9:rvse8KO|Unknown|Unknown|Unknown|Unknown|Unknown|Unknown|Black List: No|Use Type: Residential
152.53.170.41:29641:DVStb0pB4N:8AlOqa5|172.59.75.147|United States|Florida|Jacksonville|32209|T-Mobile USA, Inc.|Black List: No|Use Type: Cellular
152.53.170.41:29641:DVS4tCAZmY:gdOS8r5|23.16.41.172|Canada|British Columbia|Grand Forks|V0H|TELUS Communications Inc.|Black List: No|Use Type: Residential
152.53.170.41:29641:DVSFvgCnUY:9R4473e|72.240.95.205|United States|Ohio|Toledo|43623|Buckeye Cablevision, Inc.|Black List: No|Use Type: Residential
152.53.170.41:29641:DVSOm1Tpdz:hu8XwKF|184.187.182.85|United States|California|Goleta|93117|Cox Communications Inc.|Black List: No|Use Type: Residential
152.53.170.41:29641:DVSyvTtB9i:bHIesYc|Unknown|Unknown|Unknown|Unknown|Unknown|Unknown|Black List: No|Use Type: Residential
152.53.170.41:29641:DVS2NzH3pV:aTfJVC8|35.145.89.210|United States|Florida|Daytona Beach|32118|Charter Communications|Black List: No|Use Type: Residential
162.55.188.17:41169:DVSmImxnE4:DZusOrx|213.204.114.211|Lebanon|Beyrouth|Beirut||TerraNet sal|Black List: No|Use Type: Residential
91.98.38.205:34179:DVSyZiBvAQ:2wPg8iq|188.113.233.210|Uzbekistan|Tashkent|Tashkent||Ucell|Black List: No|Use Type: Residential
91.98.38.205:34179:DVSwrmrEsG:ws1Eawg|70.45.84.151|Puerto Rico|Carolina|Carolina||Liberty Communications of Puerto Rico LLC|Black List: No|Use Type: Residential
152.53.170.41:29641:DVSXbkYtqc:41daKJq|174.178.134.14|United States|Pennsylvania|Reading|19602|Comcast Cable Communications, LLC|Black List: No|Use Type: Residential
91.98.38.205:34179:DVSuCk9l9h:z2udTNz|102.212.182.182|Zambia|Lusaka Province|Lusaka||MTN|Black List: No|Use Type: Residential
162.55.188.17:41169:DVSBuwIgY0:MIXy4dA|151.43.128.110|Italy|Apulia|Villa Castelli|72029|INFOSTRADA|Black List: No|Use Type: Residential
162.55.188.17:41169:DVSGBFlQyv:Ug54Tfo|109.161.190.209|Bahrain|Northern|Hamad Town||Zain Bahrain|Black List: No|Use Type: Residential
162.55.188.17:41169:DVSEyZnDqm:kAGYOfO|177.52.136.37|Brazil|Santa Catarina|Coronel Freitas|89840|Celnet Internet Provider|Black List: No|Use Type: Residential
162.55.188.17:41169:DVSjxK2hQA:BqWOxdK|185.99.6.12|Russia|Krasnodar Krai|Sochi|354000|JV A-Mobile Ltd.|Black List: No|Use Type: Cellular
46.224.87.167:33047:DVS7fKdTvs:O2Jbviu|95.79.191.137|Russia|Nizhny Novgorod Oblast|Nizhniy Novgorod|603000|CJSC "ER-Telecom Holding" Nizhny Novgorod branch|Black List: No|Use Type: Residential
152.53.170.41:29641:DVSP4ln7Xw:JiyHZ3Y|82.42.243.22|United Kingdom|England|Wigan|WN3|Virgin Media|Black List: No|Use Type: Residential
91.98.38.205:34179:DVSoHZFvIK:SbPOpa7|190.219.103.153|Panama|Provincia de Panamá|Panama City|34002|Cable Onda|Black List: No|Use Type: Residential
152.53.170.41:29641:DVSj61U0jG:ObTlVht|151.196.25.69|United States|Maryland|Halethorpe|21227|Verizon Communications|Black List: No|Use Type: Residential
152.53.170.41:29641:DVSte2suyF:ES6wEsH|24.239.101.229|United States|Pennsylvania|Ellwood City|16117|Armstrong|Black List: No|Use Type: Residential
152.53.170.41:29641:DVSfTCeIYE:MHW1OID|76.235.16.185|United States|California|Vallejo|94590|AT&T Enterprises, LLC|Black List: No|Use Type: Residential
162.55.188.17:41169:DVSGZo2Rwp:iFeTfBd|87.19.49.18|Italy|Lazio|Rome|00135|Telecom Italia S.p.A. TIN EASY LITE|Black List: No|Use Type: Residential
91.98.38.205:34179:DVS4MtEbij:zVkbyuo|167.62.20.31|Uruguay|Montevideo Department|Montevideo|11700|Administracion Nacional de Telecomunicaciones|Black List: No|Use Type: Residential
91.98.38.205:34179:DVSb4NZjv7:LSpFVGE|37.122.20.30|Russia|Bashkortostan Republic|Ufa||Bashinformsvyaz Company, RUMS, DSL|Black List: No|Use Type: Residential
91.98.38.205:34179:DVSyO64cCO:nQ7mYMq|196.190.144.141|Ethiopia|Addis Ababa|Addis Ababa||EthioNet|Black List: No|Use Type: Residential
162.55.188.17:41169:DVSzgJpWTX:lzPlK1Z|201.114.2.132|Mexico|Puebla|Huauchinango|73176|UNINET|Black List: No|Use Type: Residential
152.53.170.41:29641:DVSxqvm7bT:L6IolLH|77.96.17.187|United Kingdom|England|Blackburn|BB2|Virgin Media Limited|Black List: No|Use Type: Residential
152.53.170.41:29641:DVS9tvlYGz:LbeLTap|2.102.162.53|United Kingdom|England|Ealing|W13|TalkTalk|Black List: No|Use Type: Residential
162.55.188.17:41169:DVS0anpsGk:YKNfBTp|45.174.251.15|Mexico|Michoacán|Morelia|58330|Wifmax S.A de C.V.|Black List: No|Use Type: Residential
46.224.87.167:33047:DVSWUmsqYk:NLAKu4Z|188.113.44.139|Russia|Kursk Oblast|Oboyan'|306230|Kursknet.ru|Black List: No|Use Type: Residential
162.55.188.17:41169:DVSkyKxM0R:QoL0zak|102.207.166.111|Kenya|Laikipia|Nanyuki|10400|Wavex Internet Service Provider LTD|Black List: No|Use Type: Residential
162.55.188.17:41169:DVSeb11NSQ:sZvKbJF|74.244.5.72|Mexico|Mexico City|Mexico City||Space Exploration Technologies Corporation|Black List: No|Use Type: Residential
162.55.188.17:41169:DVSba5zLIu:WKRnNGs|86.108.16.197|Jordan|Amman Governorate|Amman||Jordan Data Communications Company LLC|Black List: No|Use Type: Residential
162.55.188.17:41169:DVSc1NtXVz:TS4H7rB|92.99.65.195|United Arab Emirates|Emirate of Fujairah|Fujairah||EMIRATES TELECOMMUNICATIONS GROUP COMPANY (ETISALAT GROUP) PJSC|Black List: No|Use Type: Residential
162.55.188.17:41169:DVSwwDwlXm:c06CSbQ|154.243.181.59|Algeria|Algiers|Algiers|16000|new|Black List: No|Use Type: Residential
162.55.188.17:41169:DVSyHsqTlz:bpEzGT8|212.35.74.173|Jordan|Amman Governorate|Amman||FIRSTNET|Black List: No|Use Type: Residential
162.55.188.17:41169:DVSDbvTU0D:Z820aqv|212.30.41.23|Lebanon|Mohafazat Liban-Nord|Tripoli||user|Black List: No|Use Type: Residential
162.55.188.17:41169:DVSVFtb2ET:8EdIou1|91.80.26.17|Italy|Lazio|Rome|00166|VODAFONE-IT into|Black List: No|Use Type: Residential
162.55.188.17:41169:DVSgI5aZ0d:SdUZ1Sc|37.214.60.143|Belarus|Minsk City|Minsk|220037|Republican Unitary Telecommunication Enterprise Beltelecom|Black List: No|Use Type: Cellular
162.55.188.17:41169:DVS7KSAK2a:efqOiZI|102.210.125.50|Kenya|Nairobi County|Nairobi|09831|Technobiz Solution|Black List: No|Use Type: Residential
46.224.87.167:33047:DVSVehPNqX:sHdtYvT|77.29.169.7|North Macedonia|Grad Skopje|Skopje|1000|Makedonski Telekom AD-Skopje|Black List: No|Use Type: Residential
46.224.87.167:33047:DVSRh67o4V:k9jg2cq|109.175.71.26|Bosnia and Herzegovina|Federation of Bosnia and Herzegovina|Sarajevo||BH Telecom d.d. Sarajevo|Black List: No|Use Type: Residential
162.55.188.17:41169:DVSh0BAPYx:BWG3Twj|45.166.9.184|Brazil|São Paulo|São Paulo|04849|Connectceu Telecom Eireli|Black List: No|Use Type: Residential
162.55.188.17:41169:DVSPBOja9r:RtQ38r9|149.200.255.249|Jordan|Amman Governorate|Amman||Jordan Data Communications Company LLC|Black List: No|Use Type: Residential
162.55.188.17:41169:DVSzUmAy9v:cPSeN94|213.230.92.0|Uzbekistan|Qashqadaryo|Shahrisabz||"Uzbektelekom" Joint Stock Company|Black List: No|Use Type: Residential
46.224.87.167:33047:DVS3D6L1rs:69OoJI8|45.168.200.194|Brazil|Minas Gerais|Belo Horizonte|30000|Implantar Telecom Sociedade Limitada|Black List: No|Use Type: Residential
162.55.188.17:41169:DVSwrbH0WE:B7oXtQ4|179.190.117.225|Brazil|Santa Catarina|Joinville|89200|UNIFIQUE TELECOMUNICACOES S/A|Black List: No|Use Type: Residential
162.55.188.17:41169:DVS299esZD:jrM496F|191.6.43.117|Brazil|Espírito Santo|Guarapari|29200|Go In Tecnologia|Black List: No|Use Type: Residential
162.55.188.17:41169:DVSypdAt8y:utKARWc|179.127.109.161|Brazil|São Paulo|Serra Negra|13930|Wisp Iconecta Servicos De Rede Ltda|Black List: No|Use Type: Residential
193.233.254.8:1080|193.233.254.8|Germany|Hesse|Frankfurt am Main|60313|WAIcore Ltd|Black List: No|Use Type: Residential
162.55.188.17:41169:DVSxPhdtAS:IC2DYoi|94.249.76.2|Jordan|Amman Governorate|Amman||Jordan Data Communications Company LLC|Black List: No|Use Type: Residential
162.55.188.17:41169:DVSX41gv3z:Y3Wlue3|200.153.161.103|Brazil|São Paulo|Guarulhos|07262|Vivo|Black List: No|Use Type: Residential
193.233.254.9:1080|193.233.254.9|Germany|Hesse|Frankfurt am Main|60313|WAIcore Ltd|Black List: No|Use Type: Residential
162.55.188.17:41169:DVSPfDfhXH:flfw3vw|179.48.184.92|Brazil|Minas Gerais|Monte Belo|37115|SB INTERNET|Black List: No|Use Type: Residential
46.224.87.167:33047:DVSNIF9xAH:5903a4j|188.53.204.92|Saudi Arabia|Riyadh Region|Riyadh|09848|Saudinet DSL|Black List: No|Use Type: Residential
162.55.188.17:41169:DVSt3ICNCa:9XdEE9V|178.121.5.25|Belarus|Minsk City|Minsk|220004|Republican Unitary Telecommunication Enterprise Beltelecom|Black List: No|Use Type: Cellular
91.98.38.205:34179:DVSjRmva1M:jYsGCdU|185.156.14.142|Albania|Tirana|Tirana||ONE ALBANIA SH.A.|Black List: No|Use Type: Residential
162.55.188.17:41169:DVS2FZU7UC:Givg6Sz|46.124.154.16|Austria|Styria|Pollau|8225|T-Mobile Austria|Black List: No|Use Type: Cellular
46.224.87.167:33047:DVSX8NJVHC:dnutFKU|5.163.66.239|Saudi Arabia|Medina Region|Medina||STC MBB|Black List: No|Use Type: Residential
46.224.87.167:33047:DVS51rEahy:ESOcKyM|129.208.99.167|Saudi Arabia|Riyadh Region|Riyadh|09848|Saudi Telecom Company JSC|Black List: No|Use Type: Residential
162.55.188.17:41169:DVSscrpysJ:RrAjHsJ|168.227.152.15|Brazil|São Paulo|Guarulhos|07000|BRASIL TECPAR | AMIGO | AVATO|Black List: No|Use Type: Residential
162.55.188.17:41169:DVS5HSvUHT:yhMUMNY|5.31.39.148|United Arab Emirates|Emirate of Sharjah|Sharjah||Emirates Integrated Telecommunications Company PJSC|Black List: No|Use Type: Residential
162.55.188.17:41169:DVSBifVsvm:7nz1t5H|5.194.181.218|United Arab Emirates|Emirate of Sharjah|Sharjah||Emirates Telecommunications Corporation|Black List: No|Use Type: Residential
162.55.188.17:41169:DVSpOImyum:S5eT3vh|94.204.61.55|United Arab Emirates|Dubai|Dubai||Emirates Integrated Telecommunications Company PJSC|Black List: No|Use Type: Residential
162.55.188.17:41169:DVSainhgoe:fntP967|Unknown|Unknown|Unknown|Unknown|Unknown|Unknown|Black List: No|Use Type: Residential
162.55.188.17:41169:DVSp6Z3XeU:d7Gfzmz|31.215.123.122|United Arab Emirates|Abu Dhabi|Abu Dhabi||EMIRATES TELECOMMUNICATIONS GROUP COMPANY (ETISALAT GROUP) PJSC|Black List: No|Use Type: Residential
91.98.38.205:34179:DVSEMh35Zd:dmZSzie|37.106.137.77|Saudi Arabia|Mecca Region|Jeddah||Saudinet DSL|Black List: No|Use Type: Residential
162.55.188.17:41169:DVSSTFWyml:m90XSrz|86.96.39.132|United Arab Emirates|Emirate of Sharjah|Sharjah||EMIRATES TELECOMMUNICATIONS GROUP COMPANY (ETISALAT GROUP) PJSC|Black List: No|Use Type: Residential
91.98.38.205:34179:DVS7bPnywr:CYiF1eZ|188.53.231.122|Saudi Arabia|Mecca Region|Jeddah||Saudinet DSL|Black List: No|Use Type: Residential
162.55.188.17:41169:DVSQLBvJXz:J0NJLCp|92.99.22.5|United Arab Emirates|Abu Dhabi|Abu Dhabi||Emirates Telecommunications Corporation|Black List: No|Use Type: Residential
162.55.188.17:41169:DVSw1PGnfM:n9FXsuo|176.204.103.30|United Arab Emirates|Emirate of Sharjah|Sharjah||EMIRATES TELECOMMUNICATIONS GROUP COMPANY (ETISALAT GROUP) PJSC|Black List: No|Use Type: Residential
162.55.188.17:41169:DVSmSRRywl:c034684|5.193.140.32|United Arab Emirates|Ajman|Ajman||Emirates Telecommunications Corporation|Black List: No|Use Type: Residential
162.55.188.17:41169:DVSszrgDur:5kOXwEw|94.205.183.141|United Arab Emirates|Dubai|Dubai||Emirates Integrated Telecommunications Company PJSC|Black List: No|Use Type: Residential
91.98.38.205:34179:DVSCLCMY13:RTIyeyg|77.90.212.237|Saudi Arabia|Mecca Region|Jeddah||Saudi Telecom Company JSC|Black List: No|Use Type: Residential
91.98.38.205:34179:DVS946KRE3:MC45UWl|159.0.220.178|Saudi Arabia|Riyadh Region|Riyadh|09848|Saudinet|Black List: No|Use Type: Residential
91.98.38.205:34179:DVShdpq0jZ:BNqwgGo|92.34.160.113|Sweden|Östergötland County|Norrköping|603 78|Bredbandsbolaget|Black List: No|Use Type: Residential
162.55.188.17:41169:DVS56tv6Zh:7gZtcpo|5.30.61.132|United Arab Emirates|Emirate of Sharjah|Sharjah||Emirates Integrated Telecommunications Company PJSC|Black List: No|Use Type: Residential
91.98.38.205:34179:DVShA3cpMj:kLXtp2w|2.67.216.211|Sweden|Östergötland County|Rimforsa|590 41|Hi3G Access AB|Black List: No|Use Type: Residential
91.98.38.205:34179:DVSIgoKve1:3gycG47|90.143.28.108|Sweden|Stockholm County|Vårsta|123 57|TELE2|Black List: No|Use Type: Residential
162.55.188.17:41169:DVSYwH3dt0:AESALAn|191.7.55.176|Brazil|Ceará|Fortaleza|60000|IP2 INTERNET LTDA|Black List: No|Use Type: Residential
162.55.188.17:41169:DVSwyH5w6N:WqKWeze|201.43.111.164|Brazil|São Paulo|Vinhedo|13280|TELEFÔNICA BRASIL S.A|Black List: No|Use Type: Residential
91.98.38.205:34179:DVS1wT3LtK:XulsqDW|Unknown|Unknown|Unknown|Unknown|Unknown|Unknown|Black List: No|Use Type: Residential
91.98.38.205:34179:DVSyJFWWmc:nLlzcxE|153.94.81.54|Saudi Arabia|Mecca Region|Jeddah||STC FBB|Black List: No|Use Type: Residential
162.55.188.17:41169:DVS8xPCJu1:xGdd9x5|192.141.120.15|Brazil|Bahia|Iguaí|45280|MVF NETWORK|Black List: No|Use Type: Residential
91.98.38.205:34179:DVSwmf7ZCP:Hd8yz6f|85.81.56.98|Denmark|Capital Region|Valby|2500|Telenor Denmark|Black List: No|Use Type: Residential
91.98.38.205:34179:DVSkv7hkvL:Gv9bzVW|84.238.16.76|Denmark|South Denmark|Odense|5210|Internal adresses infrastructure components|Black List: No|Use Type: Residential
91.98.38.205:34179:DVStkzQ8of:ctB06uZ|31.166.242.93|Saudi Arabia|Mecca Region|Jeddah||Etihad Etisalat|Black List: No|Use Type: Residential
91.98.38.205:34179:DVSUTdB7yx:atPc0jg|91.128.147.225|Sweden|Stockholm|Stockholm||TELE2/ SWIPNET|Black List: No|Use Type: Residential
162.55.188.17:41169:DVSKq32DNt:rcHiZeR|201.93.88.234|Brazil|São Paulo|São Paulo|01000|Vivo|Black List: No|Use Type: Residential
91.98.38.205:34179:DVSwSgfE9G:EzTqCuK|5.111.100.101|Saudi Arabia|Mecca Region|Jeddah||Internet Broadband|Black List: No|Use Type: Residential
91.98.38.205:34179:DVSyRxo2uy:f88M7jR|151.255.42.21|Saudi Arabia|Mecca Region|Jeddah||Saudi Arabia backbone and local registry / STC|Black List: No|Use Type: Residential
91.98.38.205:34179:DVSE2XIzqt:XFgPMjS|213.189.162.50|Belgium|Wallonia|Charleroi|6030|Brutele SC (Subdivided)|Black List: No|Use Type: Residential
91.98.38.205:34179:DVSu9Wv2l8:8APgErq|81.83.146.128|Belgium|Flanders|Schoten|2900|Telenet Operaties N.V.|Black List: No|Use Type: Residential
91.98.38.205:34179:DVSZG23B4R:RDZ6igi|81.244.195.238|Belgium|Flanders|Antwerp|2100|Proximus|Black List: No|Use Type: Residential
91.98.38.205:34179:DVSZvSYzeI:4IKlLN9|94.227.240.134|Belgium|Flanders|Antwerp|2660|Telenet N.V.|Black List: No|Use Type: Residential
162.55.188.17:41169:DVSDJDXXOQ:655QPjS|168.181.62.207|Brazil|Rio de Janeiro|São João de Meriti|25500|Ponto a Ponto Telecomunicaçoes|Black List: No|Use Type: Residential
91.98.38.205:34179:DVSknoVpVe:qeRm4FU|84.197.226.35|Belgium|Flanders|Mechelen|2800|Telenet operaties N.V.|Black List: No|Use Type: Residential
91.98.38.205:34179:DVSVF88BRX:4YX8V4X|151.255.44.38|Saudi Arabia|Mecca Region|Jeddah||Saudi Arabia backbone and local registry / STC|Black List: No|Use Type: Residential
162.55.188.17:41169:DVSl6IDZDo:5LP9fAW|45.71.211.56|Brazil|Paraná|Curitiba|80000|Stalker Engenharia Eireli|Black List: No|Use Type: Residential
162.55.188.17:41169:DVSutnJiPW:bbmc2aG|177.125.123.247|Brazil|Ceará|Sobral|62010|Francisca Edileuza Melo ME|Black List: No|Use Type: Residential
46.224.87.167:33047:DVS07Tf67M:FXVxVrk|197.17.31.3|Tunisia|Tunis Governorate|Tunis||Ooredoo Tunisie SA|Black List: No|Use Type: Residential
91.98.38.205:34179:DVSfQ43UxB:4mFefsn|81.241.54.183|Belgium|Wallonia|La Louvière|7100|Proximus|Black List: No|Use Type: Residential
91.98.38.205:34179:DVSUwd6M1U:Xmp6zME|109.132.141.158|Belgium|Wallonia|Liège|4000|Proximus|Black List: No|Use Type: Residential
162.55.188.17:41169:DVSFUwB7Me:MDURsY1|185.167.53.114|Italy|Sicily|Bolognetta|90030|Neomedia S.r.l.|Black List: No|Use Type: Residential
162.55.188.17:41169:DVS2coVhVJ:jtDN8pZ|170.246.210.137|Brazil|Minas Gerais|Juiz de Fora|36000|Vero S.A|Black List: No|Use Type: Residential
91.98.38.205:34179:DVSag5iFHN:JjFGWlw|103.154.49.130|Bangladesh|Dhaka Division|Dhaka|1000|Windstream Communication Limited|Black List: No|Use Type: Residential
162.55.188.17:41169:DVSnhoVXcy:KkyARv5|2.48.77.66|United Arab Emirates|Emirate of Sharjah|Sharjah||EMIRATES TELECOMMUNICATIONS GROUP COMPANY (ETISALAT GROUP) PJSC|Black List: No|Use Type: Residential
91.98.38.205:34179:DVSbACCQOr:TMLhLxf|87.65.108.194|Belgium|Brussels Capital|Brussels|1200|Proximus|Black List: No|Use Type: Residential
162.55.188.17:41169:DVSdX9OLv3:TytU53W|187.182.236.29|Brazil|São Paulo|Guarulhos|07000|Claro NXT Telecomunicacoes Ltda|Black List: No|Use Type: Residential
162.55.188.17:41169:DVSZz08q0J:BIKUNJk|41.90.126.135|Kenya|Nairobi County|Nairobi|09831|Safaricom Limited|Black List: No|Use Type: Residential
