152.53.36.101:35287:DVSk1e1uq2:WjXZUSt|77.239.16.181|Bosnia and Herzegovina|Federation of Bosnia and Herzegovina|Sarajevo||TELEMACH BH|Black List: No|Use Type: Residential
178.104.149.94:43563:DVS46fr14k:yX5qe3m|45.44.176.43|Canada|Ontario|Toronto|M6E|Videotron Ltee|Black List: No|Use Type: Cellular
178.104.148.240:38293:DVStj2nytr:ZA01Kml|90.60.39.79|France|Île-de-France|Paris|75014|France Telecom Orange|Black List: No|Use Type: Residential
178.104.148.240:38293:DVSe2x42li:zzLUwrj|92.208.151.115|Germany|North Rhine-Westphalia|Dortmund|44135|Vodafone GmbH|Black List: No|Use Type: Residential
178.104.148.240:38293:DVS5iblqhp:jceC85H|95.91.223.178|Germany|Rheinland-Pfalz|Trier|54296|Vodafone Kabel Deutschland|Black List: No|Use Type: Residential
178.104.148.240:38293:DVS12x83u9:ad1Hx7S|176.98.216.145|Spain|Andalusia|Rota|11520|GARTEL, TELEFONIA Y COMUNICACION, S.L.|Black List: No|Use Type: Residential
152.53.36.101:35287:DVSufh2mg1:DydpXUw|157.100.64.125|Ecuador|Guayas|Guayaquil||Telconet S.A|Black List: No|Use Type: Residential
178.104.148.240:38293:DVStw57hd2:cl4Rkxy|77.25.47.22|Germany|Lower Saxony|Hanover|30459|Vodafone D2 GmbH|Black List: No|Use Type: Residential
178.104.148.240:38293:DVSgz8mj17:JPqVC3v|188.26.223.36|Spain|Madrid|Madrid|28085|Digi Spain Telecom S.L.U.|Black List: No|Use Type: Residential
178.104.149.94:43563:DVS5rjeg4m:dKTUSwK|73.212.31.164|United States|Maryland|Upper Marlboro|20772|Comcast Cable Communications|Black List: No|Use Type: Residential
152.53.36.101:35287:DVSjgl2nzd:SzWnblB|82.102.212.219|Palestine|Ramallah and al-Bireh Governorate|Ramallah||GZ OPEN POOL2|Black List: No|Use Type: Residential
152.53.36.101:35287:DVSv9bcxrn:P7PfBtB|46.175.160.47|Ukraine|Odesa|Odesa|65000|Little Enterprise Independent Television Company "Norma-4" LTD|Black List: No|Use Type: Residential
152.53.36.101:35287:DVSoveu3e1:yMsCGBn|41.82.55.78|Senegal|Dakar|Dakar||SONATEL-AS Autonomous System|Black List: No|Use Type: Residential
152.53.36.101:35287:DVSa9iejkp:EA9xlqR|138.84.53.174|Colombia|Bogota D.C.|Bogota||Starlink Chile SPA|Black List: No|Use Type: Residential
178.104.148.240:38293:DVSxml7329:s3s4GUn|97.200.243.148|United States|Georgia|Atlanta|30319|Verizon Business|Black List: No|Use Type: Residential
152.53.36.101:35287:DVSi02jae3:UlO7YKB|178.89.85.122|Kazakhstan|Qyzylorda Oblysy|Kyzylorda||JSC Kazakhtelecom|Black List: No|Use Type: Residential
152.53.36.101:35287:DVSoitmupc:7RN3oOe|58.97.230.101|Cambodia|Phnom Penh|Phnom Penh||OpenNet ISP Cambodia|Black List: No|Use Type: Residential
152.53.36.101:35287:DVSntt3sek:sny6JY0|93.149.133.134|Italy|Campania|Naples|80128|VODAFONE|Black List: No|Use Type: Residential
152.53.36.101:35287:DVS6vtda37:qNwxI7F|201.214.203.189|Chile|Santiago Metropolitan|Puente Alto||VTR BANDA ANCHA S.A.|Black List: No|Use Type: Residential
152.53.36.101:35287:DVSgy4lcxi:H0Ghpot|37.28.28.96|Oman|Muscat|Muscat||Nawras ISP (Oman)|Black List: No|Use Type: Residential
178.104.148.240:38293:DVS6qa8mq3:VmOfHGq|104.13.51.53|United States|North Carolina|Burlington|27215|AT&T Enterprises, LLC|Black List: No|Use Type: Residential
178.104.148.240:38293:DVS71px3tw:VYBaYiQ|100.6.38.136|United States|Pennsylvania|Pittsburgh|15235|Verizon Communications|Black List: No|Use Type: Residential
178.104.148.240:38293:DVSj11y3be:JqbJyi2|131.106.1.193|United States|Pennsylvania|Upper Darby|19082|RCN|Black List: No|Use Type: Residential
152.53.36.101:35287:DVSejkduke:8zoF8v5|188.123.184.15|Jordan|Amman Governorate|Amman||Al-hadatheh Lil-itisalat WA Al-technologia CO.|Black List: No|Use Type: Residential
152.53.36.101:35287:DVSpsmvox1:cmyGz6X|37.28.64.11|Oman|Muscat|Muscat||Nawras ISP (Oman)|Black List: No|Use Type: Residential
152.53.36.101:35287:DVS5w3adp0:2Em5CpL|103.108.5.179|India|National Capital Territory of Delhi|Delhi|110055|Paras Cable Networks|Black List: No|Use Type: Residential
178.104.148.240:38293:DVS671fd88:1VQullh|174.62.222.9|United States|Indiana|Portage|46368|Comcast Cable Communications, LLC|Black List: No|Use Type: Residential
152.53.36.101:35287:DVSop6wjcw:ieLKjZC|151.50.6.205|Italy|Apulia|Bari|70122|INFOSTRADA|Black List: No|Use Type: Residential
152.53.36.101:35287:DVSes2xc34:6y0vMXw|145.255.177.253|Kazakhstan|West Kazakhstan|Fedorovka||JSC Kazakhtelecom|Black List: No|Use Type: Residential
152.53.36.101:35287:DVS00h0f1s:8CLD47w|188.113.193.127|Uzbekistan|Tashkent|Tashkent||Ucell|Black List: No|Use Type: Residential
152.53.36.101:35287:DVSs2gdsud:dGkXwqT|2.50.100.62|United Arab Emirates|Emirate of Fujairah|Fujairah||Emirates Telecommunications Corporation|Black List: No|Use Type: Residential
152.53.36.101:35287:DVS8p1hwg8:1WZ6NYq|193.188.122.213|Bahrain|Manama|Manama|09834|Bahrain Telecommunication Company|Black List: No|Use Type: Residential
152.53.36.101:35287:DVSgidpshg:Sa4rvk7|196.32.248.13|South Africa|KwaZulu-Natal|Durban|4001|Sadv KZN Pool1|Black List: No|Use Type: Residential
152.53.36.101:35287:DVSd7p36nk:dWIqRcG|186.4.52.160|Costa Rica|Provincia de San José|San José|10103|Millicom Cable Costa Rica S.A.|Black List: No|Use Type: Residential
162.55.188.17:45021:DVSz951hko:S10MVXk|87.247.197.73|Austria|Tyrol|Telfs|6410|Gemeindewerke Telfs Ges.m.b.H|Black List: No|Use Type: Residential
178.104.148.240:38293:DVSkwr5ejc:zQ6C0nQ|99.235.202.243|Canada|Ontario|Brampton|L6R|Rogers Communications Canada Inc.|Black List: No|Use Type: Residential
152.53.36.101:35287:DVS23xyh3c:PZChkUY|92.253.193.112|Uzbekistan|Tashkent|Tashkent||PE Luseya Plyus|Black List: No|Use Type: Residential
178.104.148.240:38293:DVSdc37wd0:VpPruW4|90.59.222.158|France|Brittany|Vannes|56000|Orange|Black List: No|Use Type: Residential
152.53.36.101:35287:DVSddzapz6:KaSD4nO|190.212.211.45|Nicaragua|Managua Department|Managua||TELECOMUNICACIONES DE GUATEMALA, SOCIEDAD ANONIMA|Black List: No|Use Type: Residential
152.53.36.101:35287:DVSz216io6:n7sjHzs|94.143.198.193|Kyrgyzstan|Gorod Bishkek|Bishkek||ElCat LIR|Black List: No|Use Type: Residential
152.53.36.101:35287:DVShciysfz:xTvMJx7|188.236.178.112|Kuwait|Al Asimah|Kuwait City||Mobile Telecommunications Company|Black List: No|Use Type: Cellular
152.53.36.101:35287:DVSc33nlaf:8TRJiRY|119.157.66.253|Pakistan|Sindh|Karachi|74900|Pakistan Telecommuication company limited|Black List: No|Use Type: Residential
152.53.36.101:35287:DVShw0mkq4:R3yihW2|185.187.206.89|Iraq|Sulaymaniyah Governorate|Sulaymaniyah||I.Q Online Internet Services and Communications LLC|Black List: No|Use Type: Residential
152.53.36.101:35287:DVS13jx99g:4WF58Tb|41.73.123.147|Mali|Bamako|Bamako||IKATEL SA|Black List: No|Use Type: Residential
152.53.36.101:35287:DVSjogkxsr:b00O9cv|189.28.65.242|Bolivia|Departamento de Cochabamba|Cochabamba||Telefónica Celular de Bolivia S.A.|Black List: No|Use Type: Residential
152.53.36.101:35287:DVS6n59roz:xFDMVGA|186.16.167.190|Paraguay|Asunción|Asunción||Telecel S.A.|Black List: No|Use Type: Residential
178.104.148.240:38293:DVSzv5pkvh:iGUtXrA|95.90.204.186|Germany|City state Bremen|Bremen|28779|Vodafone Kabel Deutschland|Black List: No|Use Type: Residential
152.53.36.101:35287:DVSn60xs6n:3UCGFLH|37.200.255.45|Oman|Muscat|Muscat||Omani Qatari Telecommunications Company SAOC|Black List: No|Use Type: Residential
152.53.36.101:35287:DVS9fc190p:hyNS82d|154.118.186.116|Mali|Bamako|Bamako||Orange|Black List: No|Use Type: Residential
178.104.149.94:43563:DVS7zqegee:1RIiqHm|85.86.242.229|Spain|Canary Islands|Arrecife|35500|Xtra Telecom S.A.|Black List: No|Use Type: Residential
178.104.148.240:38293:DVSpzdelig:GCn2Bgi|90.112.111.205|France|Rhône-Alpes|Grenoble|38000|France Telecom Orange|Black List: No|Use Type: Residential
152.53.36.101:35287:DVS3hv4jgr:CUCo1KK|94.43.50.250|Georgia|Adjara|Batumi||JSC "Silknet"|Black List: No|Use Type: Residential
162.55.188.17:45021:DVSi4ykqqc:iRxS92P|176.221.247.44|Georgia|Tbilisi|Tbilisi||JSC "Silknet"|Black List: No|Use Type: Residential
162.55.188.17:45021:DVSt08cqlu:W3YnL0m|196.98.51.144|Kenya|Nairobi County|Nairobi|09831|Safaricom Limited|Black List: No|Use Type: Residential
152.53.36.101:35287:DVSguh4wbt:NJICcTC|89.148.21.252|Bahrain|Manama|Manama|09834|Bahrain Telcommunication Company|Black List: No|Use Type: Residential
162.55.188.17:45021:DVS2xgvezf:1F5DfSH|186.156.215.150|Chile|Santiago Metropolitan|Las Condes|7550000|VTR BANDA ANCHA S.A.|Black List: No|Use Type: Residential
152.53.36.101:35287:DVSoddsz3p:9MwyH07|92.63.205.177|Uzbekistan|Tashkent|Tashkent||"UZMOBILE" branch of "Uzbektelecom" JSC|Black List: No|Use Type: Cellular
152.53.36.101:35287:DVS65zog2p:zgULbWy|146.158.94.19|Uzbekistan|Tashkent|Tashkent||IPAK YOL MChJ|Black List: No|Use Type: Residential
178.104.148.240:38293:DVSj7eugmt:1FiiYqa|172.112.75.101|United States|California|Los Angeles|90011|Charter Communications|Black List: No|Use Type: Residential
178.104.149.94:43563:DVSnol3dki:ZE3J6KR|172.56.170.12|United States|California|Sacramento|95828|T-Mobile USA, Inc.|Black List: No|Use Type: Cellular
152.53.36.101:35287:DVSt7qvin0:HlwSQub|195.69.230.128|Iraq|Al-Anbar Governorate|Fallujah||Baghdad Link to Internet Services Provider and Information Technology LLC|Black List: No|Use Type: Residential
178.104.148.240:38293:DVSpf7scdf:BJmxMWd|86.250.11.97|France|Occitanie|Montauban|82000|Orange|Black List: No|Use Type: Residential
162.55.188.17:45021:DVS4qa06cq:gIc1FoG|212.129.83.226|Ireland|Leinster|Dublin|D16|METEOR-GPRS|Black List: No|Use Type: Residential
152.53.36.101:35287:DVSkr9lh55:UINvy0j|196.207.222.252|Senegal|Dakar|Dakar||Sonatel|Black List: No|Use Type: Residential
152.53.36.101:35287:DVSnd78gv0:jF5Z2co|106.215.168.72|India|Andhra Pradesh|Visakhapatnam|530002|Bharti Airtel|Black List: No|Use Type: Residential
178.104.148.240:38293:DVS68o4fv1:TQkvLP4|38.191.211.166|Colombia|Arauca Department|Saravena|815010|Servicios De Telecomunicaciones E Informatica S.A.S.|Black List: No|Use Type: Residential
178.104.149.94:43563:DVSx3hipaa:3KIEEV6|172.56.99.92|United States|Florida|Tampa|33612|T-Mobile USA, Inc.|Black List: No|Use Type: Cellular
152.53.36.101:35287:DVS523hrsw:iFSMJr1|185.221.255.135|Albania|Korçë County|Korçë||FASTNET ALBANIA Sh.p.k|Black List: No|Use Type: Residential
152.53.36.101:35287:DVSy8j1ug4:nN9TrUS|176.44.209.32|Saudi Arabia|Mecca Region|Makkah||Saudinet|Black List: No|Use Type: Residential
162.55.188.17:45021:DVS77jhks2:IyCTF5n|178.191.50.83|Austria|Vorarlberg|Bludenz|6700|A1 Telekom Austria AG|Black List: No|Use Type: Residential
152.53.36.101:35287:DVSyqt8gc1:SN9kKPl|185.215.54.174|Armenia|Yerevan|Yerevan||Fnet LLC|Black List: No|Use Type: Residential
152.53.36.101:35287:DVSinyctm8:drUgj1Y|145.224.109.113|Bulgaria|Sofia-Capital|Sofia||Space Exploration Technologies Corporation|Black List: No|Use Type: Residential
152.53.36.101:35287:DVSmxvr89q:fMr5yhD|102.142.98.235|Gabon|Estuaire|Libreville||GVA Cote d'Ivoire SAS|Black List: No|Use Type: Residential
162.55.188.17:45021:DVS4a8ntp3:4ZErXA1|38.210.165.33|Costa Rica|Provincia de San José|San José|10101|Comunicaciones Metropolitanas METROCOM, S.A.|Black List: No|Use Type: Residential
162.55.188.17:45021:DVSzcdlujm:tJoQngz|198.245.107.189|Puerto Rico|San Juan|Eleanor Roosevelt||Liberty Communications of Puerto Rico LLC|Black List: No|Use Type: Residential
162.55.188.17:45021:DVSdzt0ouw:ujqBBdx|197.146.134.155|Morocco|Casablanca-Settat|Casablanca||Wana Corporate|Black List: No|Use Type: Residential
162.55.188.17:45021:DVSwwj35on:MuBcvDk|154.160.3.37|Ghana|Greater Accra Region|Accra||Scancom Ltd.|Black List: No|Use Type: Residential
178.104.148.240:38293:DVSjrxdu2j:OSCVP1l|138.199.40.185|United States|New York|New York|10118|Datacamp Limited|Black List: No|Use Type: Residential
152.53.36.101:35287:DVSni0x1oj:jKmjiIp|92.245.115.30|Kyrgyzstan|Osh Region|Osh||Megaline LLC|Black List: No|Use Type: Residential
152.53.36.101:35287:DVS2tro7f9:9ssMnog|187.190.211.54|Mexico|Baja California|Mexicali|21137|Total Play Telecomunicaciones SA De CV|Black List: No|Use Type: Residential
162.55.188.17:45021:DVS6aprnv4:hzMNfHi|195.142.16.77|Türkiye|Kilis|Kilis|79000|Superonline Iletisim Hizmetleri A.S.|Black List: No|Use Type: Residential
162.55.188.17:45021:DVStk0a025:8lr0ucg|147.93.215.45|Albania|Tirana|Tirana||PacketHub S.A.|Black List: No|Use Type: Residential
152.53.36.101:35287:DVSi31f07y:W4HaB7v|189.140.97.65|Mexico|Tamaulipas|Reynosa|88795|UNINET|Black List: No|Use Type: Residential
178.104.148.240:38293:DVSlj3yrad:xuvhPl4|Unknown|Unknown|Unknown|Unknown|Unknown|Unknown|Black List: No|Use Type: Residential
162.55.188.17:45021:DVSigj6qx7:7rKy9vq|143.105.209.25|Ghana|Greater Accra Region|Accra||Space Exploration Technologies Corporation|Black List: No|Use Type: Residential
91.99.95.238:43185:hua6lfc93x:vEsJoSiEZH|71.81.232.71|United States|North Carolina|Boone|28607|Charter Communications LLC|Black List: No|Use Type: Residential
91.99.95.238:43185:0b0hbje3gh:kfLkNe0LQw|142.105.129.213|United States|New York|Halfmoon|12065|Charter Communications Inc|Black List: No|Use Type: Residential
91.99.95.238:43185:5vh2snay0i:asrkhil6XM|185.61.84.59|Czechia|Ústecký kraj|Ústí nad Labem|400 01|AmigoNet s.r.o.|Black List: No|Use Type: Residential
91.99.95.238:43185:69v8nd8i2j:mbn6fLlPM4|67.248.10.81|United States|New York|Buffalo|14222|Charter Communications|Black List: No|Use Type: Residential
89.167.126.207:33329:kqk6215zmw:fkmBAj4vBN|172.58.167.54|United States|Illinois|Chicago|60602|T-Mobile USA, Inc.|Black List: No|Use Type: Cellular
91.99.95.238:43185:kq7t2sglyn:Q8aPOhe1CN|73.48.196.178|United States|California|Fresno|93737|Comcast Cable Communications|Black List: No|Use Type: Residential
89.167.126.207:33329:1los9ssbx4:LpuRC0Q0fV|121.209.162.183|Australia|New South Wales|Sydney|2099|Telstra Internet|Black List: No|Use Type: Residential
91.99.95.238:43185:jwqf095ul2:wo78Rbzb0H|78.157.167.86|Czechia|Moravskoslezský kraj|Český Těšín|737 01|SilesNet Network|Black List: No|Use Type: Residential
89.167.126.207:33329:3d0czhknm8:XOumjCbxBq|172.58.132.110|United States|Florida|Miami|33142|T-Mobile USA, Inc.|Black List: No|Use Type: Cellular
91.99.95.238:43185:4ga83btbqi:J43XfpMDPq|38.39.201.121|Canada|Nova Scotia|Mahone Bay|B0J 2E0|Purple Cow Internet|Black List: No|Use Type: Residential
89.167.126.207:33329:81hkrn6a4f:PVd9hVwH0U|99.250.154.191|Canada|Ontario|Kitchener|N2E|Rogers Communications Canada Inc.|Black List: No|Use Type: Residential
152.53.36.101:35287:DVSmwcds8t:yM2PH0C|Unknown|Unknown|Unknown|Unknown|Unknown|Unknown|Black List: No|Use Type: Residential
91.99.95.238:43185:quvj8ui23w:490J2fIT6n|142.117.180.174|Canada|Quebec|Montreal|H3N|Bell Canada|Black List: No|Use Type: Residential
89.167.126.207:33329:wjn4236oas:E1mGjtlthI|174.112.101.77|Canada|Ontario|Nepean|K2J|Rogers Communications Canada Inc.|Black List: No|Use Type: Residential
91.99.95.238:43185:ywf25s9a84:eqOUbpltI3|80.42.53.154|United Kingdom|England|Chatham|ME4|TalkTalk|Black List: No|Use Type: Residential
89.167.126.207:33329:a1z0scrnra:wbbjJStrU0|174.115.59.163|Canada|Ontario|Ottawa|K1N|Rogers Communications Canada Inc.|Black List: No|Use Type: Residential
89.167.126.207:33329:gpae38zuxa:xHSJgNJa1o|66.130.198.161|Canada|Quebec|Laval|H7N|Videotron Ltee|Black List: No|Use Type: Cellular
91.99.95.238:43185:c7ofywow0y:UaaZEMs7Rl|103.7.206.101|United Kingdom|England|Fulham|W12|Community Fibre Limited|Black List: No|Use Type: Residential
91.99.95.238:43185:nmb5b7arxs:6QMniPJgSJ|2.126.237.248|United Kingdom|England|Thamesmead|SE28|Sky UK Limited|Black List: No|Use Type: Residential
91.99.95.238:43185:xmj0jklb6a:UvqpTDe5RW|92.31.158.208|United Kingdom|England|Sheffield|S9|TalkTalk|Black List: No|Use Type: Residential
89.167.126.207:33329:twp9gslkkz:eTGW7njEtj|173.209.145.74|Canada|Ontario|Toronto|M6K|Rogers Communications Canada Inc|Black List: No|Use Type: Residential
89.167.126.207:33329:fqckykio54:FgnH1ppFb6|99.234.90.171|Canada|Ontario|Brampton|L6P|Rogers Communications Canada Inc.|Black List: No|Use Type: Residential
89.167.126.207:33329:ms8ofa5tkn:EnVtkQWkf4|88.97.179.250|United Kingdom|England|Manchester|M14|Zen Internet Ltd|Black List: No|Use Type: Residential
91.99.95.238:43185:adbq2kowi9:zr92nY2D9V|92.209.168.93|Germany|Baden-Wurttemberg|Göppingen|73033|Vodafone GmbH|Black List: No|Use Type: Residential
89.167.126.207:33329:tqih8bw9pm:PnYtcAIJR2|82.45.65.161|United Kingdom|England|South Shields|NE34|Virgin Media|Black List: No|Use Type: Residential
91.99.95.238:43185:fx8ln5s23a:d1D2oFaLHB|87.74.108.116|United Kingdom|England|Salford|M6|Cable and Wireless Access Ltd|Black List: No|Use Type: Residential
91.99.95.238:43185:hksowq09rm:rtfPnUDvyd|195.149.34.118|United Kingdom|England|Oldham|OL8|TalkTalk Communications Limited|Black List: No|Use Type: Residential
89.167.126.207:33329:8t445xc4fi:mTau9hlqqM|82.9.203.6|United Kingdom|England|Waltham Cross|EN8|Virgin Media Limited|Black List: No|Use Type: Residential
89.167.126.207:33329:1qim5lu038:t9HEKq16tp|92.18.214.206|United Kingdom|England|Maidstone|ME15|TalkTalk|Black List: No|Use Type: Residential
91.99.95.238:43185:zo0r6izqjn:IUXZGKtzZc|98.163.36.176|United States|California|Ladera Ranch|92694|Cox Communications Inc.|Black List: No|Use Type: Residential
91.99.95.238:43185:hgaeuac598:YRiRmov3ug|81.108.15.214|United Kingdom|England|Blackburn|BB1|Virgin Media|Black List: No|Use Type: Residential
89.167.126.207:33329:tqdjhcw96l:sCjORzbC0A|82.39.13.190|United Kingdom|Northern Ireland|Belfast|BT1|Fibrus Networks LTD|Black List: No|Use Type: Residential
89.167.126.207:33329:n7mqnk5gf7:eZ24LRXXvQ|151.225.227.28|United Kingdom|England|Wood Green|N22|Sky UK Limited|Black List: No|Use Type: Residential
91.99.95.238:43185:fdzx1qnkfk:1hWMk2nStE|184.161.47.210|Canada|Quebec|Granby|J2H|Le Groupe Videotron Ltee|Black List: No|Use Type: Cellular
91.99.95.238:43185:afamw2q12b:wY8Qj3Z1y3|174.0.76.116|Canada|British Columbia|Invermere|V0A|Shaw Communications|Black List: No|Use Type: Residential
91.99.95.238:43185:el4b0nvhtp:vvc4qvxCm8|99.239.21.72|Canada|Ontario|Toronto|M6J|Rogers Communications Canada Inc.|Black List: No|Use Type: Residential
89.167.126.207:33329:8tk03lku41:gAbQzAgzVs|47.198.118.150|United States|Florida|Davenport|33837|Frontier Communications Solutions|Black List: No|Use Type: Residential
89.167.126.207:33329:dfcp2ios4y:17Gs7fSs0e|99.253.125.84|Canada|Ontario|Brantford|N3R|Rogers Communications Canada Inc.|Black List: No|Use Type: Residential
91.99.95.238:43185:535oxyeuqf:wnNavUysut|86.27.239.142|United Kingdom|England|Leeds|LS6|Virgin Media Limited|Black List: No|Use Type: Residential
91.99.95.238:43185:ib4n4k9lup:U9K0XxCxZA|67.169.20.82|United States|California|San Jose|95134|Comcast Cable Communications, LLC|Black List: No|Use Type: Residential
91.99.95.238:43185:zer4kcpg95:qxoI4quord|212.159.109.187|United Kingdom|England|Wakefield|WF3|PlusNet Technologies Ltd|Black List: No|Use Type: Residential
91.99.95.238:43185:5vn8xp7qul:wrHS2wZWj8|95.90.184.112|Germany|Saxony|Leipzig|04155|Vodafone Kabel Deutschland|Black List: No|Use Type: Residential
91.99.95.238:43185:r4wj6r86ol:WwAGPXAiFo|216.171.20.117|United States|Illinois|Monticello|61856|Pavlov Media Inc|Black List: No|Use Type: Residential
89.167.126.207:33329:yr9t8j399x:is40kBE6zX|81.99.87.186|United Kingdom|England|Darlington|DL3|Virgin Media|Black List: No|Use Type: Residential
91.99.95.238:43185:76atjgnc0b:wH5Vq1riIt|82.10.54.166|United Kingdom|England|Bromley|BR2|Virgin Media Limited|Black List: No|Use Type: Residential
89.167.126.207:33329:l4v4kwill5:UeKJIi4X6J|172.56.107.228|United States|Washington|Renton|98056|T-Mobile USA, Inc.|Black List: No|Use Type: Cellular
89.167.126.207:33329:n0tcc42e39:QjRsQjF35K|23.124.105.63|United States|California|Palo Alto|94303|AT&T Enterprises, LLC|Black List: No|Use Type: Residential
89.167.126.207:33329:0fem0wsbzp:jZhrxIQfJf|31.104.97.105|United Kingdom|England|Kensington|SW3|British Telecommunications PLC|Black List: No|Use Type: Residential
91.99.95.238:43185:04dbn2vebd:mXjDFLtW5C|73.204.163.224|United States|Florida|Sunrise|33351|Comcast Cable Communications|Black List: No|Use Type: Residential
91.99.95.238:43185:bp4r9t69el:OQFiPlOdVX|73.83.139.26|United States|Washington|Sammamish|98075|Comcast Cable Communications|Black List: No|Use Type: Residential
89.167.126.207:33329:szxg4jv5sc:mfImOlAb4n|90.214.39.163|United Kingdom|England|Manchester|M8|Sky UK Limited|Black List: No|Use Type: Residential
91.99.95.238:43185:nti2fd1mqb:tWSMn4gd27|98.196.120.34|United States|Texas|Houston|77024|Comcast Cable Communications, LLC|Black List: No|Use Type: Residential
91.99.95.238:43185:hqfx4w0dhf:Y7JybURPQt|90.196.61.150|United Kingdom|England|Middlesex|NW10|Sky UK Limited|Black List: No|Use Type: Residential
89.167.126.207:33329:2lzwtbfq0m:Eps4tOJNS6|80.5.33.114|United Kingdom|England|Wallsend|NE28|Virgin Media|Black List: No|Use Type: Residential
91.99.95.238:43185:k6fae9uf0b:8vbLoDCZCB|81.111.190.234|United Kingdom|England|Bradford|BD3|Virgin Media|Black List: No|Use Type: Residential
89.167.126.207:33329:xsdaryl5fq:QMOroKpUVE|99.248.191.127|Canada|Ontario|Oshawa|L1J|Rogers Communications Canada Inc.|Black List: No|Use Type: Residential
89.167.126.207:33329:fin3w9f0ys:cfMlwb0CaL|69.118.187.38|United States|New York|Mastic|11950|Cablevision Systems Corp.|Black List: No|Use Type: Residential
91.99.95.238:43185:swgq6r7vpm:4yZdZ2QD6C|68.172.233.23|United States|New Jersey|Englewood|07631|Charter Communications|Black List: No|Use Type: Residential
91.99.95.238:43185:wywodyq4qo:tp4l0Ecm9E|47.205.145.6|United States|Florida|Port Richey|34668|Frontier Communications Solutions|Black List: No|Use Type: Residential
89.167.126.207:33329:gds7feg9gp:ShCFL7Iiuh|72.136.103.227|Canada|Ontario|Toronto|M5N|Rogers Communications Canada Inc.|Black List: No|Use Type: Residential
91.99.95.238:43185:xdfu3grp4y:m0SrGiiARV|24.141.111.208|Canada|Ontario|Burlington|L7L|Cogeco Communications Inc.|Black List: No|Use Type: Residential
89.167.126.207:33329:g7khdv5mxr:p3KEK1F4C8|174.113.144.24|Canada|New Brunswick|Saint John|E2N|Rogers Communications Canada Inc.|Black List: No|Use Type: Residential
89.167.126.207:33329:iwb5s4ifp1:CaDDL5pJt6|84.66.140.117|United Kingdom|England|Wakefield|WF3|Vodafone Limited|Black List: No|Use Type: Residential
89.167.126.207:33329:zxwpjqhjqt:90wm97b45U|96.242.241.82|United States|New Jersey|Caldwell|07006|Verizon Business|Black List: No|Use Type: Residential
89.167.126.207:33329:v0gbo0bd07:pTCSMRX7yq|185.135.107.177|United Kingdom|England|Liverpool|L1|Baltic Broadband Limited|Black List: No|Use Type: Residential
89.167.126.207:33329:dc0zu3qwt3:0H1DtjNIdJ|99.250.146.89|Canada|Ontario|Kitchener|N2E|Rogers Communications Canada Inc.|Black List: No|Use Type: Residential
89.167.126.207:33329:uewi2fq4wx:IsEWnzZiQe|77.179.192.43|Germany|Hesse|Frankfurt am Main|65929|Telefonica Germany GmbH & Co. OHG|Black List: No|Use Type: Residential
91.99.95.238:43185:rxv5vwyalc:ZLHM4C8Uyc|81.77.99.156|United Kingdom|Wales|Caerphilly|CF83|Energis UK|Black List: No|Use Type: Residential
89.167.126.207:33329:b6w5xpycyx:32uUEnj8ls|173.34.248.249|Canada|Ontario|Ajax|L1S|Rogers Communications Canada Inc.|Black List: No|Use Type: Residential
91.99.95.238:43185:tea15m6fwv:40PYUuYIsz|95.145.157.232|United Kingdom|England|Tower Hamlets|E14|EE Limited|Black List: No|Use Type: Residential
91.99.95.238:43185:k2es9ji7xf:16fHHHo1bQ|90.250.214.142|United Kingdom|Wales|Cardiff|CF11|Vodafone|Black List: No|Use Type: Residential
91.99.95.238:43185:lofgh6uok3:rtTGYrlyc2|5.133.46.157|United Kingdom|England|South Shields|NE33|Grain Communications Limited|Black List: No|Use Type: Residential
91.99.95.238:43185:x2m7hfmaqv:MVoce5iHk1|103.212.118.67|Mongolia|Ulaanbaatar|Ulan Bator||MCS Com Co Ltd|Black List: No|Use Type: Residential
89.167.126.207:33329:jt2iqeqpcl:O0rxpFmW9F|79.79.110.135|United Kingdom|England|Sheffield|S2|TalkTalk|Black List: No|Use Type: Residential
89.167.126.207:33329:rz4ci9orzz:bnEFi064f4|185.240.197.106|United Kingdom|England|Manor Park|E7|Community Fibre Limited|Black List: No|Use Type: Residential
89.167.126.207:33329:n8eetay4gt:yvNOekhNRo|81.108.196.161|United Kingdom|Scotland|Glasgow|G76|Virgin Media|Black List: No|Use Type: Residential
91.99.95.238:43185:hjreze6p4g:Zisnjw7TS1|81.156.114.231|United Kingdom|Wales|Cardiff|CF14|BT Public Internet Service|Black List: No|Use Type: Residential
89.167.126.207:33329:5krll8r5k0:JOXITUZNZr|91.125.146.206|United Kingdom|England|Sheffield|S10|BV ADSL|Black List: No|Use Type: Residential
91.99.95.238:43185:dgr3d2bklo:kXbMgRWdiU|92.191.104.18|Spain|Andalusia|Benamaurel|18817|Orange Spain|Black List: No|Use Type: Residential
91.99.95.238:43185:942xkgh0lx:tEw4OXoat2|92.209.159.199|Germany|North Rhine-Westphalia|Düsseldorf|40629|Vodafone GmbH|Black List: No|Use Type: Residential
91.99.95.238:43185:s80heyjxae:jj2hQFynPD|77.98.173.119|United Kingdom|England|Hounslow|TW3|Virgin Media|Black List: No|Use Type: Residential
91.99.95.238:43185:evkg75vgf1:KD6hr0l0yw|81.86.19.49|United Kingdom|England|Manchester|M99|TalkTalk|Black List: No|Use Type: Residential
91.99.95.238:43185:ut96mtfm5e:g6RiVHYdPJ|174.95.171.144|Canada|Ontario|Scarborough|M1G|Bell Canada|Black List: No|Use Type: Residential
91.99.95.238:43185:np5igfowpc:QcDAozK64k|86.198.146.78|France|Provence-Alpes-Côte d'Azur|Marseille|13012|France Telecom|Black List: No|Use Type: Residential
91.99.95.238:43185:9asfzjm526:WOpL6M33Os|174.164.252.136|United States|Washington|Tacoma|98409|Comcast Cable Communications, LLC|Black List: No|Use Type: Residential
89.167.126.207:33329:k3hcdtkrfw:53T5fMVHim|94.9.105.221|United Kingdom|England|Worcester|WR5|Sky UK Limited|Black List: No|Use Type: Residential
91.99.95.238:43185:olz7555ciu:MSkqyWG7Bi|24.57.239.219|Canada|Ontario|Windsor|N8P|Cogeco Communications Inc.|Black List: No|Use Type: Residential
89.167.126.207:33329:vk66xyjh71:Q7DABJCavi|86.4.114.171|United Kingdom|England|Doncaster|DN6|Virgin Media Limited|Black List: No|Use Type: Residential
89.167.126.207:33329:dxliz713az:5lkZMObTOD|148.170.170.138|Canada|Ontario|Simcoe|N3Y|EastLink|Black List: No|Use Type: Residential
89.167.126.207:33329:zul2fv9fhr:Ch1aUttlay|23.118.41.169|United States|Wisconsin|Milwaukee|53225|AT&T Enterprises, LLC|Black List: No|Use Type: Residential
91.99.95.238:43185:ptn7q8hovj:h4weFfE5Zi|76.174.87.173|United States|California|Van Nuys|91401|Charter Communications|Black List: No|Use Type: Residential
91.99.95.238:43185:63hc4dgs4s:6qm6k2VFlt|76.67.174.51|Canada|Ontario|East Gwillimbury|L9N|Bell Canada|Black List: No|Use Type: Residential
91.99.95.238:43185:hr78ocu9m9:rggOWxqAWd|94.123.194.94|Türkiye|Istanbul|Istanbul|34440|Andromeda TV Digital Platform Isletmeciligi A.S.|Black List: No|Use Type: Residential
89.167.126.207:33329:t3vgtbye0a:lQZFsBkdUg|68.250.41.200|United States|Texas|San Antonio|78228|AT&T Enterprises, LLC|Black List: No|Use Type: Residential
91.99.95.238:43185:1gsd6efz8c:udzWRbodq4|139.47.64.191|Spain|Madrid|Madrid|28030|Xtra Telecom S.A.|Black List: No|Use Type: Residential
89.167.126.207:33329:jhyxjwdhvu:CnnYreu2r3|2.126.181.248|United Kingdom|Scotland|Glasgow|G2|Sky UK Limited|Black List: No|Use Type: Residential
91.99.95.238:43185:z2vrrs3397:AQ6uyiH1kg|216.237.208.129|United States|Georgia|Columbus|31904|North State Telephone, LLC|Black List: No|Use Type: Residential
89.167.126.207:33329:h6kklonvk0:2reKtXCkF3|151.229.250.38|United Kingdom|England|Bolton|BL1|Sky UK Limited|Black List: No|Use Type: Residential
89.167.126.207:33329:qtqak6yl9c:fq0c0G84gq|81.159.53.133|United Kingdom|England|Stanley|DH9|BT Public Internet Service|Black List: No|Use Type: Residential
91.99.95.238:43185:rpo927nafw:f610nOWKTF|91.151.136.245|Georgia|Tbilisi|Tbilisi||Geocell mobile user network|Black List: No|Use Type: Cellular
91.99.95.238:43185:hkg053r0iy:wtOpthOCow|151.240.205.90|United States|New York|New York|10118|Cogent Communications|Black List: No|Use Type: Residential
89.167.126.207:33329:txcwf1klki:rWn2WkKtY0|86.14.188.125|United Kingdom|England|Walthamstow|E17|Virgin Media|Black List: No|Use Type: Residential
91.99.95.238:43185:8nc1obxes7:SFBaQdfCpj|188.70.56.223|Kuwait|Al Asimah|Kuwait City||National Mobile Telecommunications Company K.S.C.P.|Black List: No|Use Type: Cellular
91.99.95.238:43185:yuet8qr0lk:oISMEC5TJD|92.114.154.96|Moldova|Chișinău Municipality|Chisinau|MD-2000|JSC MOLDTELECOM SA|Black List: No|Use Type: Residential
91.99.95.238:43185:9nxpc57y72:aVh8G6HEdM|92.208.78.73|Germany|Hesse|Frankfurt am Main|60316|Vodafone GmbH|Black List: No|Use Type: Residential
89.167.126.207:33329:jlkffp9w87:XJHkbkURSF|90.249.245.82|United Kingdom|England|Leeds|LS10|Vodafone|Black List: No|Use Type: Residential
89.167.126.207:33329:xvidgb2wmr:hsLG59N4UV|90.199.177.79|United Kingdom|England|Bristol|BS4|Sky UK Limited|Black List: No|Use Type: Residential
89.167.126.207:33329:g61ka71kry:v27FgOYqn3|99.244.129.235|Canada|New Brunswick|Fredericton|E3A|Rogers Communications Canada Inc.|Black List: No|Use Type: Residential
89.167.126.207:33329:enlxepnwbk:uvOgxq4rHr|69.156.97.24|Canada|Ontario|North York|M3H|Bell Canada|Black List: No|Use Type: Residential
91.99.95.238:43185:qkzslqquyv:QByyugFN16|91.225.198.216|Ukraine|Chernihiv|Chernihiv|14000|FOP Kukanov Vitaly Yurievich|Black List: No|Use Type: Residential
89.167.126.207:33329:uflqdl0r01:RU88MrsOyv|217.83.168.93|Germany|Bavaria|Nuremberg|90402|Deutsche Telekom AG|Black List: No|Use Type: Residential
89.167.126.207:33329:cwackxm8fs:PFSg0T79cA|172.56.100.58|United States|Florida|Tampa|33610|T-Mobile USA, Inc.|Black List: No|Use Type: Cellular
89.167.126.207:33329:fwp0f9xn1u:e69QNMDVW3|81.152.79.197|United Kingdom|England|Derby|DE21|BT Public Internet Service|Black List: No|Use Type: Residential
89.167.126.207:33329:iu75mszorz:gmHRrOMYzg|86.155.13.4|United Kingdom|England|City of London|EC4R|BT Public Internet Service|Black List: No|Use Type: Residential
91.99.95.238:43185:3i2lt0t3p8:etgoVVvTn1|91.196.231.1|Ukraine|Zakarpattia Oblast|Vynohradiv|90300|Sergey Kus|Black List: No|Use Type: Residential
89.167.126.207:33329:apctgtup30:lDLuUXPpNg|83.135.188.88|Germany|North Rhine-Westphalia|Wuppertal|42289|VT-POOL 5 BRAS ber1001aihr001|Black List: No|Use Type: Residential
91.99.95.238:43185:1ykdntn4qg:52GzIgTcdx|190.212.205.153|Nicaragua|Managua Department|Managua||TELECOMUNICACIONES DE GUATEMALA, SOCIEDAD ANONIMA|Black List: No|Use Type: Residential
91.99.95.238:43185:h0vvk41txr:VQ4qP65S3t|93.156.200.50|Spain|Madrid|Madrid|28019|R Cable y Telecable Telecomunicaciones, S.A.U.|Black List: No|Use Type: Residential
91.99.95.238:43185:s99yt9sj22:YkP2EUk1X0|66.181.191.248|Mongolia|Ulaanbaatar|Ulan Bator||MCS Com Co Ltd|Black List: No|Use Type: Residential
89.167.126.207:33329:5y9aapr7fx:bfFFtQ5rS6|165.120.105.206|United Kingdom|England|Birmingham|B20|BT Public Internet Service|Black List: No|Use Type: Residential
89.167.126.207:33329:qzalnu5hb3:6JPS1Se6nq|86.148.161.222|United Kingdom|England|Winsford|CW7|BT Public Internet Service|Black List: No|Use Type: Residential
91.99.95.238:43185:xeirnkbly5:B4cB0YefYe|175.100.33.41|Cambodia|Phnom Penh|Phnom Penh||VIETTEL (CAMBODIA) PTE., LTD|Black List: No|Use Type: Residential
91.99.95.238:43185:9ls2q9a04z:5RiGrSsQpd|119.13.157.144|Cambodia|Phnom Penh|Phnom Penh||VIETTEL (CAMBODIA) PTE., LTD|Black List: No|Use Type: Residential
89.167.126.207:33329:9dsg1l8lh8:QkqZq4O0ae|94.11.77.44|United Kingdom|England|City of London|EC3N|Sky UK Limited|Black List: No|Use Type: Residential
91.99.95.238:43185:ycystogsuh:T8wYtybX7A|190.167.147.128|Dominican Republic|Nacional|Santo Domingo|10201|Compañía Dominicana de Teléfonos S. A.|Black List: No|Use Type: Residential
89.167.126.207:33329:70z3lmqn0g:aKOkxHQ1OD|92.209.207.202|Germany|North Rhine-Westphalia|Bochum|44801|Vodafone GmbH|Black List: No|Use Type: Residential
89.167.126.207:33329:gx5r6pls9t:DW59JS0J7X|121.218.139.76|Australia|New South Wales|Sydney|2233|Telstra Internet|Black List: No|Use Type: Residential
89.167.126.207:33329:ieod6k7xwa:k0gBGg3Y9n|90.247.118.30|United Kingdom|England|Brent|NW2|Vodafone Limited|Black List: No|Use Type: Residential
89.167.126.207:33329:dwow9xp9tb:Sb3WTNPIxG|90.220.184.143|United Kingdom|Scotland|Glasgow|G72|Sky UK Limited|Black List: No|Use Type: Residential
91.99.95.238:43185:1xfzauzkff:U0Xkf2bfg1|78.40.181.171|Lebanon|Mohafazat Mont-Liban|Beït ed Dîne||Masco Group LLC|Black List: No|Use Type: Residential
89.167.126.207:33329:tqcjn61wh2:md7UUjtttD|98.238.168.42|United States|California|Stockton|95204|Comcast Cable Communications, LLC|Black List: No|Use Type: Residential
89.167.126.207:33329:e1j0sterdn:kuzzSAVZLS|174.163.191.31|United States|Georgia|Atlanta|30306|Comcast Cable Communications, LLC|Black List: No|Use Type: Residential
89.167.126.207:33329:thirle9gas:wDtE5GQuwQ|202.172.97.68|Australia|New South Wales|Sydney|2204|Spintel Pty Ltd|Black List: No|Use Type: Residential
89.167.126.207:33329:91xn6lbgt3:R4PYN7wEBg|206.75.57.250|Canada|Alberta|Spruce Grove|T7X|TELUS Communications Inc|Black List: No|Use Type: Residential
89.167.126.207:33329:iwhpf55dyk:ITTbpbzJOq|76.143.17.207|United States|Texas|Houston|77038|Comcast Cable Communications, LLC|Black List: No|Use Type: Residential
89.167.126.207:33329:0b5rkpon2q:KXBwDIdrro|90.194.201.248|United Kingdom|Scotland|Edinburgh|EH6|Sky UK Limited|Black List: No|Use Type: Residential
89.167.126.207:33329:lmfpc3cmlu:Mlx23xVdbe|87.122.19.179|Germany|North Rhine-Westphalia|Mönchengladbach|41238|1&1 Versatel GmbH|Black List: No|Use Type: Residential
91.99.95.238:43185:fdkvmbtamb:90Ouc1qyDU|212.58.103.130|Georgia|Tbilisi|Tbilisi||TELENETCANOPYREG|Black List: No|Use Type: Residential
91.99.95.238:43185:98ae3zrn9w:QG4Ls1ggMk|Unknown|Unknown|Unknown|Unknown|Unknown|Unknown|Black List: No|Use Type: Residential
91.99.95.238:43185:e9agce6r7h:k2E6TypuyG|93.183.178.113|Bulgaria|Plovdiv|Parvomay|4270|ESCOM Ltd|Black List: No|Use Type: Residential
91.99.95.238:43185:lz06y2ok1r:rSmJbcm8nY|190.53.248.195|Honduras|Francisco Morazán Department|Tegucigalpa||Telefónica Celular S.A|Black List: No|Use Type: Residential
91.99.95.238:43185:tt44tgysda:N7gvo2k8ke|69.43.47.150|United States|West Virginia|Morgantown|26501|CityNet|Black List: No|Use Type: Residential
89.167.126.207:33329:kaugffc9bu:r5XlRSsUwh|92.208.1.100|Germany|North Rhine-Westphalia|Hamm|59075|Vodafone GmbH|Black List: No|Use Type: Residential
89.167.126.207:33329:k574oo2yxy:LuKw7Y5WP2|80.47.148.52|United Kingdom|England|Washington|NE38|TalkTalk|Black List: No|Use Type: Residential
91.99.95.238:43185:0mp9rtvti5:yjhtY4up6o|181.63.178.21|Colombia|Valle del Cauca Department|Jamundí|764001|Telmex Colombia S.A.|Black List: No|Use Type: Business
91.99.95.238:43185:xb6su03bue:UjItKaY0Wf|173.68.12.75|United States|New York|Queens|11432|Verizon Business|Black List: No|Use Type: Residential
89.167.126.207:33329:tih9ot1n2d:ISANxCMc7w|202.67.100.180|Australia|Victoria|Melbourne|3030|Vocus PTY LTD|Black List: No|Use Type: Residential
89.167.126.207:33329:02lmqy2426:d4UWZIrAl4|161.51.50.200|United Kingdom|England|Sutton|SM5|Community Fibre Limited|Black List: No|Use Type: Residential
89.167.126.207:33329:av7zfa6abk:RPn4N9CSUv|162.157.167.117|Canada|Alberta|Lethbridge|T1H|TELUS Communications Inc|Black List: No|Use Type: Residential
89.167.126.207:33329:f55e9tei6w:OUxSJzWH6x|58.111.207.2|Australia|New South Wales|Maitland|2323|SingTel Optus Pty Ltd|Black List: No|Use Type: Residential
89.167.126.207:33329:sbfac6ku5t:eHo4YOBldR|147.194.92.39|Canada|Ontario|Brantford|N3S|Comwave Telecom Inc.|Black List: No|Use Type: Residential
91.99.95.238:43185:3kix223jpg:ZAvSyiaDjg|79.116.216.212|Spain|Castille-La Mancha|Albacete|02005|Digi Spain Telecom S.L.U.|Black List: No|Use Type: Residential
89.167.126.207:33329:izpm3hptpt:2NTSEKJhzV|94.6.24.48|United Kingdom|Northern Ireland|Belfast|BT15|Sky UK Limited|Black List: No|Use Type: Residential
89.167.126.207:33329:chd9dtjtxv:RpevtMkdXI|142.180.168.5|Canada|Ontario|Hamilton|L9A|Bell Canada|Black List: No|Use Type: Residential
89.167.126.207:33329:0md03pa3k9:F8mgiLt44V|49.195.113.73|Australia|New South Wales|Sydney|2193|SingTel Optus Pty Ltd|Black List: No|Use Type: Residential
89.167.126.207:33329:gko10n8730:EpZM3BLYCx|73.3.24.102|United States|Missouri|Independence|64055|Comcast Cable Communications, LLC|Black List: No|Use Type: Residential
89.167.126.207:33329:2yklo7e6lc:zxNJh70C7n|136.29.66.101|United States|Colorado|Denver|80206|Webpass Inc.|Black List: No|Use Type: Residential
89.167.126.207:33329:isfy76g16i:qArRq1nhSL|94.1.103.135|United Kingdom|England|Nottingham|NG1|Sky UK Limited|Black List: No|Use Type: Residential
89.167.126.207:33329:263twycamn:1CY4NvMryo|94.196.185.245|United Kingdom|England|Manchester|M99|Hutchison 3G UK Ltd|Black List: No|Use Type: Residential
89.167.126.207:33329:z05kka8kcc:0aWDoqxWjX|109.151.42.248|United Kingdom|England|Darlington|DL3|BT Public Internet Service|Black List: No|Use Type: Residential
91.99.95.238:43185:u3rrq8sy5e:mwQ7kqUV4Z|94.174.73.237|United Kingdom|England|Gloucester|GL2|Virgin Media|Black List: No|Use Type: Residential
178.104.149.94:43563:DVSqrzy8na:olTFw9X|108.180.58.92|Canada|British Columbia|Burnaby|V5A|TELUS Communications Inc|Black List: No|Use Type: Residential
89.167.126.207:33329:1rikuwvnps:MLEpyYRUvX|173.34.205.165|Canada|Ontario|Barrie|L9J|Rogers Communications Canada Inc.|Black List: No|Use Type: Residential
178.104.148.240:38293:DVSrykbbe2:ykf3iG3|98.183.158.120|United States|Virginia|Norfolk|23518|Cox Communications Inc.|Black List: No|Use Type: Residential
178.104.148.240:38293:DVSjf9bl6d:Rk14Y8n|73.133.209.180|United States|Maryland|Gaithersburg|20877|Comcast Cable Communications, LLC|Black List: No|Use Type: Residential
178.104.148.240:38293:DVS1rlfjd5:Yg6DBoh|75.82.251.14|United States|California|Palmdale|93551|Charter Communications|Black List: No|Use Type: Residential
178.104.148.240:38293:DVSzjssk8y:IaVGCnA|70.170.6.185|United States|Nevada|Las Vegas|89129|Cox Communications Inc.|Black List: No|Use Type: Residential
178.104.148.240:38293:DVSvouut32:gX9pBpJ|73.134.82.249|United States|Maryland|Odenton|21113|Comcast Cable Communications, LLC|Black List: No|Use Type: Residential
178.104.148.240:38293:DVSurnj82n:Ejy0TST|108.220.87.48|United States|California|El Cajon|92020|AT&T Enterprises, LLC|Black List: No|Use Type: Residential
178.104.148.240:38293:DVS06jki09:x8369Id|68.224.106.73|United States|Nevada|Las Vegas|89169|Cox Communications Inc.|Black List: No|Use Type: Residential
178.104.148.240:38293:DVSlzqlubo:RCDxJKi|76.39.89.129|United States|Wisconsin|Milwaukee|53215|Charter Communications|Black List: No|Use Type: Residential
178.104.148.240:38293:DVS0rm5h4w:6WRGkLu|73.36.128.6|United States|Michigan|Niles|49120|Comcast Cable Communications|Black List: No|Use Type: Residential
178.104.148.240:38293:DVS7xg9mls:b1oq2xz|86.19.236.56|United Kingdom|England|Stoke-on-Trent|ST6|Virgin Media|Black List: No|Use Type: Residential
178.104.148.240:38293:DVSzxvyuf8:bqrk5Fq|90.243.248.223|United Kingdom|England|Catford|SE6|Energis UK|Black List: No|Use Type: Residential
178.104.148.240:38293:DVSqudfia5:ObjnsCn|154.47.7.48|United Kingdom|England|Coventry|CV6|Vision Fibre Media LTD|Black List: No|Use Type: Residential
178.104.148.240:38293:DVStjwpu9n:rkOtc0a|86.156.227.146|United Kingdom|England|City of London|EC4R|BT Public Internet Service|Black List: No|Use Type: Residential
162.55.188.17:45021:DVSnql2lb6:wO7K4kv|143.244.57.86|France|Île-de-France|Paris|75001|Datacamp Limited|Black List: No|Use Type: Residential
178.104.148.240:38293:DVSa2kswy4:Vqdyh48|77.3.91.76|Germany|Hamburg|Hamburg|22087|Telefonica Deutschland GmbH|Black List: No|Use Type: Residential
178.104.149.94:43563:DVSb9zxttc:A6g2r8u|70.80.163.36|Canada|Quebec|Beauharnois|J6N|Le Groupe Videotron Ltee|Black List: No|Use Type: Cellular
178.104.148.240:38293:DVSzojitw4:cY3GgRe|92.208.111.177|Germany|Hesse|Frankfurt am Main|60325|Vodafone GmbH|Black List: No|Use Type: Residential
178.104.148.240:38293:DVSj4diznw:XPCCK10|94.134.183.93|Germany|Baden-Wurttemberg|Karlsruhe|76133|1&1 Versatel GmbH|Black List: No|Use Type: Residential
178.104.148.240:38293:DVSj09nf6c:KDbgOar|99.238.107.126|Canada|Ontario|Toronto|M4C|Rogers Communications Canada Inc.|Black List: No|Use Type: Residential
178.104.149.94:43563:DVSgrfjrpb:PVmBpAE|180.181.250.243|Australia|Victoria|Melbourne|3101|Wideband Networks Pty Ltd|Black List: No|Use Type: Residential
178.104.149.94:43563:DVS6sgnko3:74R7a3P|101.191.75.171|Australia|Victoria|Melbourne|3042|Telstra Limited|Black List: No|Use Type: Residential
152.53.36.101:35287:DVSq57vms8:e1tEqTo|105.127.12.249|Nigeria|Lagos|Lagos||Airtel Networks Limited|Black List: No|Use Type: Residential
178.104.148.240:38293:DVSnu59pzt:QEEroIJ|87.174.195.185|Germany|North Rhine-Westphalia|Paderborn|33098|Deutsche Telekom AG|Black List: No|Use Type: Residential
178.104.148.240:38293:DVSpl10xtf:nQqp9b2|77.22.100.239|Germany|Lower Saxony|Hamelin|31785|Vodafone Kabel Deutschland|Black List: No|Use Type: Residential
178.104.148.240:38293:DVSfp2tnx3:N8qqHZC|84.147.72.131|Germany|Hesse|Bad Soden am Taunus|65812|Deutsche Telekom AG|Black List: No|Use Type: Residential
178.104.148.240:38293:DVS7z0mj0l:tbvM24F|79.224.35.202|Germany|Baden-Wurttemberg|Karlsruhe|76133|Deutsche Telekom AG|Black List: No|Use Type: Residential
178.104.148.240:38293:DVSmjhusig:4CHNrgw|87.154.22.175|Germany|Bavaria|Munich|80331|Deutsche Telekom AG|Black List: No|Use Type: Residential
178.104.148.240:38293:DVSc95bp4j:C1ObSuH|207.89.80.147|Germany|Baden-Wurttemberg|Kornwestheim|70806|TELE AG|Black List: No|Use Type: Residential
178.104.148.240:38293:DVSln3l6ab:QjbsCIH|91.19.68.107|Germany|Saxony-Anhalt|Braunsbedra|06242|Deutsche Telekom AG|Black List: No|Use Type: Residential
178.104.148.240:38293:DVSashbjio:dippxv3|95.90.235.198|Germany|State of Berlin|Berlin|10963|Vodafone Kabel Deutschland|Black List: No|Use Type: Residential
178.104.148.240:38293:DVS1elqtg2:XP7PbC3|31.16.254.45|Germany|Bavaria|Nuremberg|90461|Vodafone Kabel Deutschland|Black List: No|Use Type: Residential
152.53.36.101:35287:DVSx4pxe20:lUjfyfD|141.164.245.19|Saudi Arabia|Mecca Region|Jeddah||Saudi Telecom Company JSC|Black List: No|Use Type: Residential
152.53.36.101:35287:DVSby3srl3:X2xcIr7|37.106.152.169|Saudi Arabia|Mecca Region|Jeddah||Saudinet DSL|Black List: No|Use Type: Residential
152.53.36.101:35287:DVS9sj8qwr:pIEHagR|176.19.12.0|Saudi Arabia|Mecca Region|Jeddah||Etihad Etisalat|Black List: No|Use Type: Residential
152.53.36.101:35287:DVSjh2uec9:o8ZLMqZ|51.223.20.114|Saudi Arabia|Eastern Province|Dammam||Saudi Telecom Company JSC|Black List: No|Use Type: Residential
152.53.36.101:35287:DVSjb0s2xu:oZazq0d|149.109.122.137|Saudi Arabia|Medina Region|Medina||Saudi Telecom Company JSC|Black List: No|Use Type: Residential
152.53.36.101:35287:DVSk5llkrg:wcPTGq7|Unknown|Unknown|Unknown|Unknown|Unknown|Unknown|Black List: No|Use Type: Residential
152.53.36.101:35287:DVS4tiy3xq:gQxd5DS|51.39.233.188|Saudi Arabia|Mecca Region|Jeddah||Mobile Telecommunication Company Saudi Arabia Joint-Stock company|Black List: No|Use Type: Cellular
152.53.36.101:35287:DVSrr4l5bn:veaoofc|168.149.43.18|Saudi Arabia|Mecca Region|Jeddah||Saudi Telecom Company JSC|Black List: No|Use Type: Residential
152.53.36.101:35287:DVS82uaq96:5nts4O3|2.90.108.37|Saudi Arabia|Mecca Region|Jeddah||Saudinet|Black List: No|Use Type: Residential
152.53.36.101:35287:DVSyv9ngyz:dYZMcvJ|77.31.160.219|Saudi Arabia|Riyadh Region|Riyadh|09848|SaudiNet|Black List: No|Use Type: Residential
152.53.36.101:35287:DVS7gm8vve:MFQl1Z9|50.61.195.208|Saudi Arabia|Tabuk Region|Tabuk||Saudinet|Black List: No|Use Type: Residential
152.53.36.101:35287:DVS9ra8bee:pSseX8p|176.19.170.219|Saudi Arabia|Mecca Region|Jeddah||Internet Broadband|Black List: No|Use Type: Residential
152.53.36.101:35287:DVSu8wkwob:vniWn5a|66.118.184.174|Saudi Arabia|Mecca Region|Jeddah||Saudi Telecom Company JSC|Black List: No|Use Type: Residential
152.53.36.101:35287:DVSrjv2hjy:8ggtY0k|142.154.85.121|Saudi Arabia|Mecca Region|Jeddah||Saudi Telecom Company JSC|Black List: No|Use Type: Residential
152.53.36.101:35287:DVSq3ajyji:u9Be0Kt|151.254.101.53|Saudi Arabia|Riyadh Region|Al Kharj||Saudi Telecom Company JSC|Black List: No|Use Type: Residential
152.53.36.101:35287:DVS4y0wh4f:DghCapI|5.246.71.226|Saudi Arabia|Eastern Province|Dammam||Internet Broadband|Black List: No|Use Type: Residential
152.53.36.101:35287:DVSmdhwsz2:iND1BLK|51.36.51.171|Saudi Arabia|Riyadh Region|Riyadh|09848|Mobile Telecommunication Company Saudi Arabia Joint-Stock company|Black List: No|Use Type: Cellular
152.53.36.101:35287:DVS62v4jtr:rsmnTxg|37.43.85.5|Saudi Arabia|Riyadh Region|Riyadh|09848|Etihad Etisalat|Black List: No|Use Type: Residential
152.53.36.101:35287:DVS7mkjeq8:GOlO6Ew|51.36.227.203|Saudi Arabia|Riyadh Region|Riyadh|09848|Mobile Telecommunication Company Saudi Arabia Joint-Stock company|Black List: No|Use Type: Cellular
152.53.36.101:35287:DVS1yquaol:J7pR7WS|176.19.149.109|Saudi Arabia|Mecca Region|Jeddah||Internet Broadband|Black List: No|Use Type: Residential
152.53.36.101:35287:DVSite9673:OC0G84o|178.81.24.162|Saudi Arabia|Eastern Province|Dammam||Etihad Etisalat|Black List: No|Use Type: Residential
152.53.36.101:35287:DVSvcfd71m:JmZzP5l|5.163.80.21|Saudi Arabia|Medina Region|Medina||STC MBB|Black List: No|Use Type: Residential
152.53.36.101:35287:DVS9pr4lq1:ukqCnlP|66.118.137.33|Saudi Arabia|Mecca Region|Ta'if||Saudi Telecom Company JSC|Black List: No|Use Type: Residential
152.53.36.101:35287:DVSrt5jd4s:rpTAl1g|141.179.92.200|Saudi Arabia|Eastern Province|Dammam||Saudi Telecom Company JSC|Black List: No|Use Type: Residential
152.53.36.101:35287:DVSlwn1sf6:6kkPl7G|176.45.19.7|Saudi Arabia|Riyadh Region|Riyadh|09848|Saudinet|Black List: No|Use Type: Residential
152.53.36.101:35287:DVSbopsfgn:8ikSDmx|51.39.233.52|Saudi Arabia|Mecca Region|Jeddah||Mobile Telecommunication Company Saudi Arabia Joint-Stock company|Black List: No|Use Type: Cellular
152.53.36.101:35287:DVSmeyns5i:RwIvAFh|159.0.62.64|Saudi Arabia|Medina Region|Medina||Saudinet|Black List: No|Use Type: Residential
152.53.54.151:37773:DVSwk56428:QQqn78H|82.129.133.161|Egypt|Giza|Ash-Shaykh Zāyid||Vodafone Data - Egypt|Black List: No|Use Type: Residential
178.104.148.240:38293:DVSlmqroua:gcMs3Dx|74.105.250.230|United States|New Jersey|Paterson|07501|Verizon Business|Black List: No|Use Type: Residential
178.104.149.94:43563:DVStity89f:f2qmEe6|47.157.102.223|United States|California|Covina|91722|Frontier Communications of America, Inc.|Black List: No|Use Type: Residential
178.104.149.94:43563:DVSzdsx3f8:BQZ7nhw|198.27.143.42|United States|California|Castro Valley|94546|Sonic Telecom LLC|Black List: No|Use Type: Residential
178.104.149.94:43563:DVSynzxxxt:fe1WVF8|15.195.3.126|Canada|Ontario|Windsor|N8W|Managed Network Systems Inc.|Black List: No|Use Type: Residential
178.104.148.240:38293:DVSdij880t:rtPtLBR|66.8.162.42|United States|Hawaii|Honolulu|96814|Charter Communications Inc|Black List: No|Use Type: Residential
178.104.148.240:38293:DVS3ma6bkl:XbHdQvr|97.191.11.211|United States|California|Stockton|95205|Verizon Business|Black List: No|Use Type: Residential
178.104.149.94:43563:DVSijoiv0p:KKBjPXH|167.89.214.144|United States|Texas|Emory|75440|Peoples Communications Inc.|Black List: No|Use Type: Residential
178.104.148.240:38293:DVSpkrnhq7:eIxkkwr|94.10.21.73|United Kingdom|England|Rochester|ME1|Sky UK Limited|Black List: No|Use Type: Residential
178.104.148.240:38293:DVSbkeycoj:3wHkPTH|2.216.127.129|United Kingdom|England|Scarborough|YO12|Sky UK Limited|Black List: No|Use Type: Residential
91.99.95.238:43185:7otkdi4kv3:TBfR3Xst8L|173.66.29.101|United States|Virginia|Centreville|20120|Verizon Business|Black List: No|Use Type: Residential
89.167.126.207:33329:59nu01mum5:SEzieFsUbM|220.240.17.17|Australia|New South Wales|Sydney|2093|TPG Internet Pty Ltd|Black List: No|Use Type: Residential
91.99.95.238:43185:wk45fqhfjm:z9x2rmeovz|174.17.250.24|United States|Arizona|Phoenix|85018|CenturyLink Communications, LLC|Black List: No|Use Type: Residential
91.99.95.238:43185:aj07t53lbl:oLPBlkeb1Z|47.187.33.103|United States|Texas|Irving|75062|Frontier Communications Solutions|Black List: No|Use Type: Residential
91.99.95.238:43185:8j3ichdurp:C8wrC59G81|47.159.25.199|United States|California|La Puente|91744|Frontier Communications of America, Inc.|Black List: No|Use Type: Residential
91.99.95.238:43185:xono0e2vzg:mqH8wqDknH|70.187.167.200|United States|California|Santa Ana|92705|Cox Communications Inc.|Black List: No|Use Type: Residential
91.99.95.238:43185:f1xnhe2wdk:QOwkrKAhIj|98.216.111.139|United States|Connecticut|Vernon|06066|Comcast Cable Communications, LLC|Black List: No|Use Type: Residential
91.99.95.238:43185:bo5l9lkpri:kMA0sAA9sA|84.115.229.221|Austria|Vienna|Vienna|1100|Liberty Global Operations B.V|Black List: No|Use Type: Residential
91.99.95.238:43185:jizazra79j:fzU6XrCd1v|90.146.232.187|Austria|Upper Austria|Wels|4600|LIWEST Kabelmedien GmbH|Black List: No|Use Type: Residential
91.99.95.238:43185:x9httdnqcx:TxLLXFQsAy|69.250.170.127|United States|District of Columbia|Washington|20036|Comcast Cable Communications, LLC|Black List: No|Use Type: Residential
91.99.95.238:43185:rux3ycpbzn:PnjGetEavz|108.48.94.159|United States|Virginia|Fairfax|22030|Verizon Communications|Black List: No|Use Type: Residential
91.99.95.238:43185:5en2u8ehiu:IMqEn5aSyO|47.202.202.141|United States|Florida|Tampa|33619|Frontier Communications Corporation|Black List: No|Use Type: Residential
91.99.95.238:43185:tw9192nfjx:ImjoeVoc2Q|24.28.73.240|United States|Texas|Irving|75062|Charter Communications Inc|Black List: No|Use Type: Residential
91.99.95.238:43185:bar1i5ww0t:qoi7LY6jVr|69.137.224.194|United States|Maryland|Lanham|20706|Comcast Cable Communications, LLC|Black List: No|Use Type: Residential
91.99.95.238:43185:c58q6twnpu:RFGd7UgOpU|76.84.86.114|United States|Nebraska|Lincoln|68512|Charter Communications|Black List: No|Use Type: Residential
91.99.95.238:43185:zmfsucr59c:7oO2oROis5|181.215.182.39|Brazil|Bahia|Porto Seguro|45810|SV INTERNET|Black List: No|Use Type: Residential
91.99.95.238:43185:874k9ffp23:vVWaT5zvJP|109.183.159.143|Czechia|South Moravian|Brno|639 00|T-Mobile Czech Republic|Black List: No|Use Type: Cellular
91.99.95.238:43185:pe30dte1ip:AdvW1HgD6g|172.56.167.121|United States|New York|Queens|11435|T-Mobile USA, Inc.|Black List: No|Use Type: Cellular
91.99.95.238:43185:0ubqq1go37:q5VnfzUVxi|24.102.100.132|United States|New York|Queens|11377|Charter Communications|Black List: No|Use Type: Residential
91.99.95.238:43185:qca4m5el3s:QjMu7V7tI1|173.216.169.61|United States|Arkansas|Magnolia|71753|Suddenlink Communications|Black List: No|Use Type: Residential
91.99.95.238:43185:xkfw41htfl:emAkBknPBn|50.46.160.177|United States|Oregon|Beaverton|97005|Wholesail networks LLC|Black List: No|Use Type: Residential
91.99.95.238:43185:64lim5emdg:JwJZnjI6xy|67.10.205.87|United States|Texas|San Marcos|78666|Charter Communications|Black List: No|Use Type: Residential
91.99.95.238:43185:wbl8zmqthm:HYEs93NUo0|75.74.156.34|United States|Florida|Miami|33157|Comcast Cable Communications|Black List: No|Use Type: Residential
91.99.95.238:43185:tj26i7e8p3:dWLRaOSeT8|98.43.42.84|United States|Colorado|Denver|80220|Comcast Cable Communications, LLC|Black List: No|Use Type: Residential
91.99.95.238:43185:py8apvl33f:wDZQeiutqR|109.81.118.145|Czechia|South Moravian|Brno|602 00|FIX BB Czechia-vl|Black List: No|Use Type: Residential
91.99.95.238:43185:2ec4ywa0z9:P2Q3bkN6JK|97.97.3.185|United States|Florida|Wesley Chapel|33544|Charter Communications|Black List: No|Use Type: Residential
91.99.95.238:43185:nnym0l1o2p:gciKTeKkoV|71.162.130.25|United States|Pennsylvania|North Wales|19454|Verizon Business|Black List: No|Use Type: Residential
91.99.95.238:43185:idrsg3aniz:nMWTtBtEm7|174.173.125.73|United States|Pennsylvania|Philadelphia|19119|Comcast Cable Communications, LLC|Black List: No|Use Type: Residential
91.99.95.238:43185:ovmn49a3wr:UPEoQtmu0V|45.37.74.186|United States|North Carolina|Durham|27713|Charter Communications Inc|Black List: No|Use Type: Residential
91.99.95.238:43185:s1cx47gkmg:aQCFOYs7gF|96.27.123.180|United States|Georgia|Newnan|30265|WideOpenWest Finance LLC|Black List: No|Use Type: Residential
89.167.126.207:33329:ulgvi1z7yt:VsZhByoFTa|69.232.60.208|United States|Oklahoma|Tulsa|74127|AT&T Enterprises, LLC|Black List: No|Use Type: Residential
91.99.95.238:43185:11yb3rvdnt:SgsfoDABRL|174.83.224.22|United States|Nevada|Sparks|89434|Charter Communications|Black List: No|Use Type: Residential
91.99.95.238:43185:zyxbrwhatq:XCnQ8uzcUs|108.45.91.180|United States|Maryland|Olney|20832|Verizon Business|Black List: No|Use Type: Residential
91.99.95.238:43185:4xz96gjmqr:zVVajtEqkC|74.45.172.14|United States|West Virginia|Fairmont|26554|Frontier Communications of America|Black List: No|Use Type: Residential
91.99.95.238:43185:0up2kos119:8TvIQYYfWQ|76.35.62.122|United States|Ohio|Cincinnati|45232|Charter Communications|Black List: No|Use Type: Residential
91.99.95.238:43185:mnmhjn5z0i:Ubx2ZgcoWb|71.57.50.57|United States|Illinois|Orland Park|60462|Comcast Cable Communications|Black List: No|Use Type: Residential
89.167.126.207:33329:q5q0j8yarc:5cuEAP2TTT|77.96.166.17|United Kingdom|England|Oldbury|B68|Virgin Media Limited|Black List: No|Use Type: Residential
91.99.95.238:43185:p7nknjzgzt:SOt8H2CX5a|47.159.25.199|United States|California|La Puente|91744|Frontier Communications of America, Inc.|Black List: No|Use Type: Residential
91.99.95.238:43185:cr0zt3jnob:eebKuBsEMs|84.115.239.153|Austria|Vienna|Vienna|1100|Liberty Global Operations B.V|Black List: No|Use Type: Residential
89.167.126.207:33329:f1kg9m5ajd:rcivHreAT5|45.146.11.59|United Kingdom|England|London|WC2N|Community Fibre Limited|Black List: No|Use Type: Residential
91.99.95.238:43185:x0ghfe6ynv:K9PyXXfuWC|81.96.166.69|United Kingdom|England|Flitwick|MK45|Virgin Media Limited|Black List: No|Use Type: Residential
89.167.126.207:33329:9gvp0mve7q:tyjS9adMHP|80.40.24.62|United Kingdom|Scotland|Glasgow|G42|TalkTalk|Black List: No|Use Type: Residential
89.167.126.207:33329:oehux7b63n:imZuy4QOVW|185.241.164.40|United Kingdom|England|Stratford|E15|Community Fibre Limited|Black List: No|Use Type: Residential
89.167.126.207:33329:6v2qzbfrwo:ci7OH4tuK6|159.196.168.171|Australia|New South Wales|Sydney|2161|Aussie Broadband|Black List: No|Use Type: Residential
91.99.95.238:43185:zjq0cof92f:saM8YwGALo|151.240.205.147|United States|New York|New York|10118|Cogent Communications|Black List: No|Use Type: Residential
89.167.126.207:33329:dvt5xmbrlu:7GzARskrcj|92.40.201.213|United Kingdom|England|Newcastle upon Tyne|NE6|Hutchison 3G UK Ltd|Black List: No|Use Type: Residential
91.99.95.238:43185:vznbc1rlio:0ut4nUNjld|81.106.173.240|United Kingdom|England|Stockport|SK6|Virgin Media|Black List: No|Use Type: Residential
89.167.126.207:33329:0gg4m7t5i7:SCFZknR9sF|86.188.104.113|United Kingdom|England|Bournemouth|BH1|BT Public Internet Service|Black List: No|Use Type: Residential
91.99.95.238:43185:ack2yz1j8s:6GlICxAEas|78.80.115.197|Czechia|Prague|Prague|110 00|T-Mobile Czech Republic|Black List: No|Use Type: Cellular
91.99.95.238:43185:2787npadsi:KddJunrqvE|172.58.245.156|United States|Maryland|Hyattsville|20784|T-Mobile USA, Inc.|Black List: No|Use Type: Cellular
89.167.126.207:33329:9xiknwuw7t:oUxxZ0UBZK|81.96.137.223|United Kingdom|England|Scunthorpe|DN16|Virgin Media Limited|Black List: No|Use Type: Residential
91.99.95.238:43185:z1sbpqpkxf:n8lVc334ys|77.97.1.92|United Kingdom|England|Sheffield|S12|Virgin Media Limited|Black List: No|Use Type: Residential
91.99.95.238:43185:vepdvpwh18:6Ab7xaN091|82.3.0.130|United Kingdom|England|Nottingham|NG5|Virgin Media Limited|Black List: No|Use Type: Residential
91.99.95.238:43185:1zjscrqvur:OKqK2LP8Vx|86.9.62.52|United Kingdom|England|Farnham|GU9|Virgin Media|Black List: No|Use Type: Residential
89.167.126.207:33329:7qfvncbd4y:1QqsJAzKdy|172.56.24.32|United States|Texas|Houston|77056|T-Mobile USA, Inc.|Black List: No|Use Type: Cellular
89.167.126.207:33329:4zcid60tcc:sSuod3oC8z|81.104.82.116|United Kingdom|England|Dunstable|LU5|Virgin Media|Black List: No|Use Type: Residential
89.167.126.207:33329:h3hl4b7qvj:m5vbhijfoi|92.25.199.127|United Kingdom|England|Peterborough|PE1|TalkTalk|Black List: No|Use Type: Residential
89.167.126.207:33329:gkg0qnappt:t0xOTKFpB4|50.29.138.186|United States|Pennsylvania|Tobyhanna|18466|PenTeleData Inc.|Black List: No|Use Type: Residential
89.167.126.207:33329:afmf2bogxr:F71RqkwgVQ|134.41.223.26|Canada|Newfoundland and Labrador|Conception Bay South|A1X|Bell Canada|Black List: No|Use Type: Residential
89.167.126.207:33329:nmybuadebo:2Yc5FsjZqS|173.179.229.63|Canada|Quebec|Dollard-des-Ormeaux|H9B|Le Groupe Videotron Ltee|Black List: No|Use Type: Cellular
89.167.126.207:33329:2wtcc9f9ev:3PhjarwJbE|81.159.90.85|United Kingdom|Wales|Holyhead|LL65|BT Public Internet Service|Black List: No|Use Type: Residential
89.167.126.207:33329:1dwfva6r30:izuvZsaM3i|71.69.129.143|United States|North Carolina|Wilson|27893|Charter Communications|Black List: No|Use Type: Residential
89.167.126.207:33329:hb7i6lqk4i:aVtvQEtrgJ|184.145.210.66|Canada|Quebec|Laval|H7H|Bell Canada|Black List: No|Use Type: Residential
91.99.95.238:43185:x9sevx7ir1:AGc1ZAxUNy|66.130.143.12|Canada|Quebec|La Motte|J0Y|Le Groupe Videotron Ltee|Black List: No|Use Type: Cellular
89.167.126.207:33329:iakndrolj0:kFLMC9jcKP|77.99.99.244|United Kingdom|England|Southend-on-Sea|SS2|Virgin Media|Black List: No|Use Type: Residential
91.99.95.238:43185:i3ottdbw8h:0zDxLgARnG|89.242.253.65|United Kingdom|England|Milton Keynes|MK4|TalkTalk|Black List: No|Use Type: Residential
91.99.95.238:43185:78g9ejsx8x:XmCMp4Sh7n|38.21.49.71|Canada|Quebec|Salaberry-de-Valleyfield|J6S|OXIO|Black List: No|Use Type: Residential
91.99.95.238:43185:b0az5tfu12:vAsPiT8Y1X|45.45.97.91|Canada|Quebec|Montreal|H1Y|Videotron Ltee|Black List: No|Use Type: Cellular
91.99.95.238:43185:uq0ijku39g:7TgV76nRgK|192.226.218.234|Canada|Quebec|Joliette|J6E|Le Groupe Videotron Ltee|Black List: No|Use Type: Cellular
91.99.95.238:43185:zilws760uf:NNqRuwlqWh|173.177.35.100|Canada|Quebec|Longueuil|J4N|Le Groupe Videotron Ltee|Black List: No|Use Type: Cellular
91.99.95.238:43185:45v7ezhg75:cuK7YFkMfl|80.7.188.98|United Kingdom|England|Swindon|SN2|Virgin Media|Black List: No|Use Type: Residential
91.99.95.238:43185:t60dq2hz6w:XZJP0iV8DJ|72.181.232.120|United States|Texas|Dallas|75217|Charter Communications|Black List: No|Use Type: Residential
91.99.95.238:43185:zjldnfro7f:7vxUcq8JQq|185.164.41.125|Spain|Andalusia|Medina-Sidonia|11170|EPSILON|Black List: No|Use Type: Residential
91.99.95.238:43185:b1p3nkmtfa:vNa2OyzHTh|87.220.237.67|Spain|Madrid|Griñón|28971|Orange Spain|Black List: No|Use Type: Residential
91.99.95.238:43185:5kw4yclgji:vhy4aircJb|152.179.66.210|United States|Virginia|Petersburg|23803|Verizon Communications|Black List: No|Use Type: Residential
91.99.95.238:43185:3jpx36li21:u2Ft385dI9|16.98.27.108|United States|Florida|Bradenton|34205|Charter Communications|Black List: No|Use Type: Residential
91.99.95.238:43185:73xyemz1kz:mNek3Zi7Qr|24.78.143.58|Canada|Manitoba|Winnipeg|R3R|Shaw Communications|Black List: No|Use Type: Residential
91.99.95.238:43185:vf7z52v1he:7jRs33EQwq|2.220.102.123|United Kingdom|England|Wednesbury|WS10|Sky Broadband|Black List: No|Use Type: Residential
91.99.95.238:43185:k30dhq5b9g:budTNQ5tla|83.36.140.205|Spain|Castille-La Mancha|Bargas|45593|Telefonica de Espana SAU|Black List: No|Use Type: Residential
91.99.95.238:43185:ytxbsbfgek:Q3XOyJgQhn|83.36.140.205|Spain|Castille-La Mancha|Bargas|45593|Telefonica de Espana SAU|Black List: No|Use Type: Residential
91.99.95.238:43185:x52bal26tj:lyx0IDW8RE|92.22.151.51|United Kingdom|England|Worcester|WR2|TalkTalk|Black List: No|Use Type: Residential
91.99.95.238:43185:yspchasr8s:jPSRQ6FZSd|217.226.88.251|Germany|North Rhine-Westphalia|Wuppertal|42103|Deutsche Telekom AG|Black List: No|Use Type: Residential
91.99.95.238:43185:gzci4m4pdd:A5K6KKrCrN|77.224.207.4|Spain|Madrid|Madrid|28053|Vodafone Espana S.A.U.|Black List: No|Use Type: Residential
91.99.95.238:43185:ia373khhqp:F85ymNHwNS|70.72.86.91|Canada|Alberta|Calgary|T2X|Shaw Communications|Black List: No|Use Type: Residential
91.99.95.238:43185:ifcd8p04uq:qvkPZs89fI|76.121.196.41|United States|Washington|Tacoma|98444|Comcast Cable Communications, LLC|Black List: No|Use Type: Residential
91.99.95.238:43185:5b71c2j82a:wRyMR6NZiz|98.52.73.106|United States|Illinois|Chicago|60656|Comcast Cable Communications, LLC|Black List: No|Use Type: Residential
91.99.95.238:43185:7c1rlou3l9:YkDIUWCgCk|31.54.116.129|United Kingdom|England|Caterham|CR3|BT Public Internet Service|Black List: No|Use Type: Residential
91.99.95.238:43185:3eacik8jld:UDDqKRWteL|81.99.243.166|United Kingdom|England|Leeds|LS7|Virgin Media|Black List: No|Use Type: Residential
91.99.95.238:43185:ayvas2nqvq:vGNwEPh4HQ|194.233.155.89|United Kingdom|England|Cinderford||Gigaclear Limited|Black List: No|Use Type: Residential
91.99.95.238:43185:meh4z1ux46:ZTQbVRUxkl|5.40.106.243|Spain|Madrid|Madrid|28025|Vodafone ONO|Black List: No|Use Type: Residential
91.99.95.238:43185:viy4ognjkw:8QovWjngAv|77.102.232.57|United Kingdom|England|Scunthorpe|DN16|Virgin Media Limited|Black List: No|Use Type: Residential
91.99.95.238:43185:b7zsja7nz4:TYbJOGhxkt|88.98.118.77|Spain|Valencia|Callosa de Segura|03360|AVATEL TELECOM, SA|Black List: No|Use Type: Residential
91.99.95.238:43185:bzkpgurdsd:c4mRrZv7gP|24.157.148.7|Canada|Quebec|Verdun|H4G|Le Groupe Videotron Ltee|Black List: No|Use Type: Cellular
91.99.95.238:43185:3k7ckt32sa:i0AGCp201b|92.53.55.81|North Macedonia|Veles|Veles|1400|Cabletel Mk08 GCN|Black List: No|Use Type: Residential
91.99.95.238:43185:6pgoz5zoda:mimw49EG3G|37.222.153.111|Spain|Aragon|Zaragoza|50017|Vodafone Espana S.A.U.|Black List: No|Use Type: Residential
91.99.95.238:43185:gs3lte7w74:XmGWfwYyGa|82.39.23.172|United Kingdom|Northern Ireland|Belfast|BT1|Fibrus Networks LTD|Black List: No|Use Type: Residential
91.99.95.238:43185:zb9ktykwfj:Z9lIOks8wu|174.91.29.31|Canada|Ontario|Greater Sudbury|P3C|Bell Canada|Black List: No|Use Type: Residential
91.99.95.238:43185:73l88ct9um:XpqyJZja3N|82.2.78.106|United Kingdom|Scotland|Edinburgh|EH11|Virgin Media Limited|Black List: No|Use Type: Residential
89.167.126.207:33329:1s3c453vp0:a4rvg5jtBY|92.208.6.85|Germany|North Rhine-Westphalia|Hamm|59075|Vodafone GmbH|Black List: No|Use Type: Residential
91.99.95.238:43185:7mvpymjvta:emveyMJFF8|50.100.221.157|Canada|Ontario|Hamilton|L9C|Bell Canada|Black List: No|Use Type: Residential
91.99.95.238:43185:alu7uprcwt:tCpaeUEVk5|66.183.242.139|Canada|British Columbia|North Vancouver|V7L|TELUS Communications Inc|Black List: No|Use Type: Residential
91.99.95.238:43185:9jquet8t1j:8mwDLP47RB|176.25.35.64|United Kingdom|England|Salisbury|SP1|Sky UK Limited|Black List: No|Use Type: Residential
91.99.95.238:43185:xcx8dafnbi:aiIiQMKyQu|90.251.238.17|United Kingdom|England|Luton|LU2|Vodafone|Black List: No|Use Type: Residential
91.99.95.238:43185:lndp5x8ir5:caX7uSdjTX|90.69.233.113|Spain|Madrid|Torrejón de Ardoz|28850|UNI2-NET- Orange Spain Network|Black List: No|Use Type: Residential
91.99.95.238:43185:2ghay40b16:DEWLgQgkc9|73.149.177.122|United States|Connecticut|Bloomfield|06002|Comcast Cable Communications|Black List: No|Use Type: Residential
91.99.95.238:43185:8rvgukocpj:hpzDn7ds7w|134.195.176.31|Canada|Quebec|Montréal-Nord|H1H|BLU Fibre Networks inc.|Black List: No|Use Type: Residential
91.99.95.238:43185:d5ascxlgs8:iWOQvEHjHb|71.77.43.101|United States|North Carolina|Apex|27502|Charter Communications|Black List: No|Use Type: Residential
91.99.95.238:43185:8pol0niv8g:YCOqQfjnHL|81.100.46.112|United Kingdom|England|Watford|WD23|Virgin Media|Black List: No|Use Type: Residential
91.99.95.238:43185:px5optcwpx:IggT2MbDTW|86.241.192.129|France|Provence-Alpes-Côte d'Azur|Saint-Maximin-la-Sainte-Baume|83470|Orange|Black List: No|Use Type: Residential
91.99.95.238:43185:y06vlxpbgf:NrLcV6lSbb|98.218.85.35|United States|Maryland|Baltimore|21206|Comcast Cable Communications, LLC|Black List: No|Use Type: Residential
91.99.95.238:43185:lcvymo3zii:HGItNgq5Qj|94.73.32.182|Spain|Basque Country|Bilbao|48011|Xtra Telecom S.A.|Black List: No|Use Type: Residential
89.167.126.207:33329:1maqx5txis:F9xMOquKgx|207.254.206.49|United States|Arizona|Buckeye|85396|Wyyerd Group|Black List: No|Use Type: Residential
91.99.95.238:43185:fjab176gib:fLr7np9VAY|88.97.194.29|United Kingdom|England|Stockton-on-Tees|TS19|YouFibre Limited|Black List: No|Use Type: Residential
91.99.95.238:43185:7zxrcuu7ae:3YCAIvdIvp|77.100.12.20|United Kingdom|England|Gloucester|GL3|Virgin Media|Black List: No|Use Type: Residential
91.99.95.238:43185:yj2h7g1fhk:g0Uva8gqxo|5.64.145.177|United Kingdom|England|Greenwich|SE2|BSkyB Broadband|Black List: No|Use Type: Residential
91.99.95.238:43185:0vvict4avh:OnLKy9QOs5|172.58.211.248|United States|California|Los Angeles|90047|T-Mobile USA, Inc.|Black List: No|Use Type: Cellular
89.167.126.207:33329:5swf18hx1h:r7qGRejqqd|2.217.75.175|United Kingdom|England|Sidcup|DA15|Sky UK Limited|Black List: No|Use Type: Residential
91.99.95.238:43185:9xouu6qwrh:CovQO4OMH4|81.2.139.2|United Kingdom|England|Reading|RG4|Vision Fibre Media LTD|Black List: No|Use Type: Residential
91.99.95.238:43185:b1ufls62c2:Jv2uqJobYf|80.3.23.175|United Kingdom|Wales|Cardiff|CF11|Virgin Media|Black List: No|Use Type: Residential
89.167.126.207:33329:j9c3dmgrvt:rnDFslr069|150.228.9.139|United Kingdom|England|London||Space Exploration Technologies Corporation|Black List: No|Use Type: Residential
91.99.95.238:43185:r2hpx278t9:zpPDBX0kXT|85.48.234.196|Spain|Castille-La Mancha|Alcázar de San Juan|13600|UNI2|Black List: No|Use Type: Residential
91.99.95.238:43185:0a7dqyolo7:dyw9vk9DFy|45.182.22.186|Honduras|Cortés Department|San Pedro Sula||Multicable De Honduras|Black List: No|Use Type: Residential
89.167.126.207:33329:haomrhc12v:IzILjgZzKc|174.138.200.116|Canada|Ontario|Toronto|M6E|Distributel Communications Limited|Black List: No|Use Type: Residential
91.99.95.238:43185:rohqtugwuq:ywG7nX2A3F|73.126.146.21|United States|Massachusetts|Lowell|01851|Comcast Cable Communications, LLC|Black List: No|Use Type: Residential
91.99.95.238:43185:41lqif8yoz:j4zlkqge9k|190.87.165.226|El Salvador|San Salvador Department|San Salvador||TELECOMUNICACIONES DE GUATEMALA, SOCIEDAD ANONIMA|Black List: No|Use Type: Residential
91.99.95.238:43185:xk8dx3j73g:Sip13jAuzF|70.66.69.89|Canada|British Columbia|Victoria|V9B|Shaw Communications|Black List: No|Use Type: Residential
91.99.95.238:43185:m4wnpdzgca:39NwG9AEpa|64.39.174.8|Canada|Ontario|Burgessville|N0J|Execulink Telecom Inc.|Black List: No|Use Type: Residential
91.99.95.238:43185:t70s90l4ru:NRBnFkuPNs|188.26.214.104|Spain|Aragon|Zaragoza|50090|Digi Spain Telecom S.L.U.|Black List: No|Use Type: Residential
91.99.95.238:43185:dcqmrijwxr:LJkhzoqkKl|217.71.56.232|Bosnia and Herzegovina|Federation of Bosnia and Herzegovina|Tuzla||TXTV d.o.o. Tuzla|Black List: No|Use Type: Residential
89.167.126.207:33329:ep8q1yb8zk:O0svaUplJA|149.13.184.208|United Kingdom|England|Derby|DE23|Vision Fibre Media LTD|Black List: No|Use Type: Residential
91.99.95.238:43185:0p99agqmzq:Yki73iT9aB|75.156.142.38|Canada|Alberta|Edmonton|T5X|TELUS Communications Inc|Black List: No|Use Type: Residential
89.167.126.207:33329:cq3zp3b2w1:YageixO5M1|70.26.203.187|Canada|Quebec|Low|J0X|Bell Canada|Black List: No|Use Type: Residential
91.99.95.238:43185:orbut424jy:F2yPna8wTt|162.213.64.49|Spain|Catalonia|Vic|08500|Gurbtec Iguana Telecom SL|Black List: No|Use Type: Residential
89.167.126.207:33329:7hozhpdqzh:IdRi1scfws|174.88.71.64|Canada|Ontario|Burlington|L7P|Bell Canada|Black List: No|Use Type: Residential
91.99.95.238:43185:f0wp224xkg:J40FjDYVW3|80.252.253.228|Ukraine|Mykolaiv|Mykolayiv|54052|WildPark Co|Black List: No|Use Type: Residential
89.167.126.207:33329:8g5196zk72:M2nA8GX2fk|87.122.20.210|Germany|North Rhine-Westphalia|Duisburg|47259|1&1 Versatel GmbH|Black List: No|Use Type: Residential
89.167.126.207:33329:n8zcm1uuah:z6yzgIz5qx|24.64.95.0|Canada|Alberta|Medicine Hat|T1B|Shaw Communications|Black List: No|Use Type: Residential
91.99.95.238:43185:xm3fiwprke:aB0HjU0NDJ|64.228.65.186|Canada|Ontario|Mississauga|L5B|Bell Canada|Black List: No|Use Type: Residential
89.167.126.207:33329:30nwb3qawa:AsHFhA6YYz|47.219.225.64|United States|Texas|Lufkin|75904|Suddenlink Communications|Black List: No|Use Type: Residential
91.99.95.238:43185:4slp8u55fs:c2ibQ8qrF9|82.4.37.247|United Kingdom|England|Dagenham|RM9|Virgin Media Limited|Black List: No|Use Type: Residential
91.99.95.238:43185:r7blee7wil:1e9jSRYrRB|173.179.150.143|Canada|Quebec|Lorraine|J6Z|Le Groupe Videotron Ltee|Black List: No|Use Type: Cellular
91.99.95.238:43185:v927mig922:RWiFcam5D8|2.126.203.15|United Kingdom|England|Cleckheaton|BD19|Sky UK Limited|Black List: No|Use Type: Residential
91.99.95.238:43185:uuo6xdy56p:zCKdWykux6|90.164.216.122|Spain|Madrid|Pozuelo de Alarcón|28223|Orange Espagne SA|Black List: No|Use Type: Residential
91.99.95.238:43185:63qr5e0t8h:uoslFIkV7m|69.117.54.166|United States|New Jersey|Newark|07105|Cablevision Systems Corp.|Black List: No|Use Type: Residential
91.99.95.238:43185:q12l4odpxg:5VMpdEYl9b|188.127.189.4|Spain|Madrid|Fuenlabrada|28942|Xtratelecom|Black List: No|Use Type: Residential
91.99.95.238:43185:7xaiadqb7r:XGjbr4uhSl|109.236.45.65|Albania|Tirana|Tirana||Abissnet PPPoE|Black List: No|Use Type: Residential
91.99.95.238:43185:n5zzpsi275:qgtHsbrAXu|24.71.228.233|Canada|British Columbia|Kelowna|V1W|Shaw Communications|Black List: No|Use Type: Residential
91.99.95.238:43185:hwd1fj5bp6:znoch9c7UF|207.219.157.247|Canada|Ontario|Toronto|M5A|TELUS Communications Inc|Black List: No|Use Type: Residential
91.99.95.238:43185:5pkxzpx6lm:qkkO4mhj1q|62.162.133.219|North Macedonia|Struga|Struga|6330|MTNET|Black List: No|Use Type: Residential
91.99.95.238:43185:4isl11ymp7:pgPT5FH665|172.115.102.4|United States|California|Gardena|90247|Charter Communications|Black List: No|Use Type: Residential
89.167.126.207:33329:s8v80wraa8:ODA6HmbVPO|90.210.208.99|United Kingdom|England|Norwich|NR12|Sky UK Limited|Black List: No|Use Type: Residential
91.99.95.238:43185:mu824jrmpf:JKXS8Ak137|73.88.173.129|United States|Tennessee|Nashville|37211|Comcast Cable Communications|Black List: No|Use Type: Residential
91.99.95.238:43185:c5mi42c413:lCJ7XYOBig|93.148.143.34|Italy|Lombardy|Milan|20151|VODAFONE|Black List: No|Use Type: Residential
91.99.95.238:43185:dhf5uye7bg:Wzjowb7Ql8|90.77.226.33|Spain|Castille and León|Valladolid|47080|UNI2-NET- Orange Spain Network|Black List: No|Use Type: Residential
91.99.95.238:43185:83kuziz9kd:69zn87JUtV|82.2.220.216|United Kingdom|England|Oldham|OL9|Virgin Media|Black List: No|Use Type: Residential
91.99.95.238:43185:u30iz00ww0:szeQBNcekv|129.222.107.32|Canada|Alberta|Calgary||Space Exploration Technologies Corporation|Black List: No|Use Type: Residential
91.99.95.238:43185:r4by7q7h4v:FDN9WqtUFR|94.69.53.220|Greece|Thessaly|Larissa||OTEnet|Black List: No|Use Type: Residential
91.99.95.238:43185:0aqu4oc7ql:SjzVgOmHbN|148.170.172.251|Canada|Ontario|Simcoe|N3Y|EastLink|Black List: No|Use Type: Residential
91.99.95.238:43185:tiaq8lv3qd:xR0tlRSMoo|216.197.199.168|Canada|Saskatchewan|Prince Albert|S6V|Saskatchewan Telecommunications|Black List: No|Use Type: Residential
91.99.95.238:43185:e1v55k1z7e:9z6TnpXUqi|190.143.252.114|Nicaragua|Managua Department|Managua||Telefonia Celular de Nicaragua SA.|Black List: No|Use Type: Residential
91.99.95.238:43185:5s38ombte6:4dj97aN4tP|99.232.40.14|Canada|Ontario|Ajax|L1Z|Rogers Communications Canada Inc.|Black List: No|Use Type: Residential
91.99.95.238:43185:2ewe5gxm7l:UJxdEjfq0b|62.151.249.248|Spain|Andalusia|Rincón de la Victoria|29730|UNI2|Black List: No|Use Type: Residential
91.99.95.238:43185:05ifturrkw:r5iu8MICDu|170.199.144.113|Canada|Nova Scotia|Sydney|B1P|Altima Telecom|Black List: No|Use Type: Residential
91.99.95.238:43185:xjii0ciq5l:JNgzoSxF4P|64.231.42.119|Canada|Ontario|Nepean|K2G|Bell Canada|Black List: No|Use Type: Residential
91.99.95.238:43185:tjs8hdg3ls:UlwIKJrtOR|99.234.148.129|Canada|Ontario|Brampton|L6R|Rogers Communications Canada Inc.|Black List: No|Use Type: Residential
91.99.95.238:43185:jq8qdyx44k:cAN4EUk5MS|198.53.34.226|Canada|Alberta|Calgary|T3J|TELUS Communications Inc|Black List: No|Use Type: Residential
91.99.95.238:43185:q6xc1q3xfe:JOpSKq2sn7|190.108.204.209|Guyana|Demerara-Mahaica|Georgetown||E-Networks Inc.|Black List: No|Use Type: Residential
91.99.95.238:43185:i4hd119ths:IsBoOnG95P|82.30.211.187|United Kingdom|Northern Ireland|Belfast|BT14|Virgin Media Limited|Black List: No|Use Type: Residential
89.167.126.207:33329:uxvvmn7576:zlCUzDvHPP|75.157.197.51|Canada|British Columbia|Vancouver|V6G|TELUS Communications Inc|Black List: No|Use Type: Residential
89.167.126.207:33329:kz1m2sraa9:rPDZJ7ckTd|156.57.249.170|Canada|Nova Scotia|New Waterford|B1H|Bell Canada|Black List: No|Use Type: Residential
89.167.126.207:33329:yaccsj5gtv:ijehc6xHhc|67.71.138.155|Canada|Ontario|Brampton|L7A|Bell Canada|Black List: No|Use Type: Residential
