152.53.36.101:35287:DVS16cpix8:nDnva4F|190.80.50.83|Guyana|Demerara-Mahaica|Georgetown||Guyana Telephone & Telegraph Co.|Black List: No|Use Type: Residential
152.53.36.101:35287:DVSk1e1uq2:WjXZUSt|77.239.16.181|Bosnia and Herzegovina|Federation of Bosnia and Herzegovina|Sarajevo||TELEMACH BH|Black List: No|Use Type: Residential
178.104.148.240:38293:DVS5iblqhp:jceC85H|89.247.162.57|Germany|State of Berlin|Berlin|12679|1&1 Versatel GmbH|Black List: No|Use Type: Residential
178.104.148.240:38293:DVStj2nytr:ZA01Kml|90.60.39.79|France|Île-de-France|Paris|75014|France Telecom Orange|Black List: No|Use Type: Residential
178.104.148.240:38293:DVSf7i123r:NGp8Jz9|134.3.147.241|Germany|North Rhine-Westphalia|Bochum|44866|Vodafone|Black List: No|Use Type: Residential
178.104.148.240:38293:DVS12x83u9:ad1Hx7S|176.98.216.145|Spain|Andalusia|Rota|11520|GARTEL, TELEFONIA Y COMUNICACION, S.L.|Black List: No|Use Type: Residential
178.104.148.240:38293:DVSgz8mj17:JPqVC3v|188.26.223.36|Spain|Madrid|Madrid|28085|Digi Spain Telecom S.L.U.|Black List: No|Use Type: Residential
178.104.148.240:38293:DVSe2x42li:zzLUwrj|89.183.194.110|Germany|Lower Saxony|Hanover|30169|htp GmbH|Black List: No|Use Type: Residential
152.53.36.101:35287:DVSufh2mg1:DydpXUw|191.99.50.172|Ecuador|Guayas|Guayaquil||Ecuadortelecom S.A.|Black List: No|Use Type: Residential
152.53.36.101:35287:DVSv9bcxrn:P7PfBtB|46.149.61.194|Ukraine|Odesa|Odesa|65000|LLC Telekompaniya Region|Black List: No|Use Type: Residential
178.104.149.94:43563:DVS46fr14k:yX5qe3m|45.44.176.43|Canada|Ontario|Toronto|M6E|Videotron Ltee|Black List: No|Use Type: Cellular
152.53.36.101:35287:DVSi8oyp7l:iF67KH3|41.223.73.187|Botswana|North-East|Maitengwe||Mascom Wireless Ltd|Black List: No|Use Type: Cellular
152.53.36.101:35287:DVSjgl2nzd:SzWnblB|147.189.191.11|Palestine|Jenin Governorate|Jenin||Hadara FLAG project|Black List: No|Use Type: Residential
152.53.36.101:35287:DVSa9iejkp:EA9xlqR|130.250.228.148|Colombia|Tolima Department|Ibagué|730001|Celsia Colombia S.a. E.S.P.|Black List: No|Use Type: Business
152.53.36.101:35287:DVSi02jae3:UlO7YKB|92.55.177.166|Kazakhstan|Abai Region|Semey||Kar-Tel LLC|Black List: No|Use Type: Residential
152.53.36.101:35287:DVSoveu3e1:yMsCGBn|41.208.184.94|Senegal|Dakar|Dakar||BAS4 isp arc pool2|Black List: No|Use Type: Residential
178.104.148.240:38293:DVSxml7329:s3s4GUn|97.200.243.148|United States|Georgia|Atlanta|30319|Verizon Business|Black List: No|Use Type: Residential
152.53.36.101:35287:DVSoitmupc:7RN3oOe|119.13.56.184|Cambodia|Phnom Penh|Phnom Penh||VIETTEL (CAMBODIA) PTE., LTD|Black List: No|Use Type: Residential
178.104.148.240:38293:DVSj11y3be:JqbJyi2|45.17.20.253|United States|Texas|Royse City|75189|AT&T Enterprises, LLC|Black List: No|Use Type: Residential
178.104.148.240:38293:DVS71px3tw:VYBaYiQ|24.205.148.249|United States|California|Pasadena|91105|Charter Communications|Black List: No|Use Type: Residential
152.53.36.101:35287:DVSgy4lcxi:H0Ghpot|37.40.90.69|Oman|Muscat|Muscat||OmanMobile Telecommunication company LLC|Black List: No|Use Type: Cellular
178.104.148.240:38293:DVS6qa8mq3:VmOfHGq|172.56.98.102|United States|Florida|Tampa|33612|T-Mobile USA, Inc.|Black List: No|Use Type: Cellular
152.53.36.101:35287:DVS6vtda37:qNwxI7F|201.214.203.189|Chile|Santiago Metropolitan|Puente Alto||VTR BANDA ANCHA S.A.|Black List: No|Use Type: Residential
178.104.148.240:38293:DVS671fd88:1VQullh|76.168.210.156|United States|California|Fontana|92335|Charter Communications|Black List: No|Use Type: Residential
152.53.36.101:35287:DVSntt3sek:sny6JY0|185.144.121.8|Italy|Sicily|Sciacca|92019|Wish Networks s.r.l.|Black List: No|Use Type: Residential
152.53.36.101:35287:DVSr6pkg50:SUJPm3g|190.181.151.49|Nicaragua|Managua Department|Managua||Yota De Nicaragua|Black List: No|Use Type: Residential
152.53.36.101:35287:DVSes2xc34:6y0vMXw|95.57.232.155|Kazakhstan|Astana|Astana|010000|JSC Kazakhtelecom|Black List: No|Use Type: Residential
152.53.36.101:35287:DVSejkduke:8zoF8v5|188.123.184.15|Jordan|Amman Governorate|Amman||Al-hadatheh Lil-itisalat WA Al-technologia CO.|Black List: No|Use Type: Residential
152.53.36.101:35287:DVSop6wjcw:ieLKjZC|2.32.192.221|Italy|Lazio|Rome|00177|VODAFONE|Black List: No|Use Type: Residential
152.53.36.101:35287:DVS8p1hwg8:1WZ6NYq|193.188.113.149|Bahrain|Manama|Manama|09834|Bahrain Telecommunication Company|Black List: No|Use Type: Residential
152.53.36.101:35287:DVSs2gdsud:dGkXwqT|94.59.112.43|United Arab Emirates|Abu Dhabi|Al Ain City||EMIRATES TELECOMMUNICATIONS GROUP COMPANY (ETISALAT GROUP) PJSC|Black List: No|Use Type: Residential
152.53.36.101:35287:DVSd7p36nk:dWIqRcG|186.176.31.24|Costa Rica|Provincia de San José|San José|10203|Millicom Cable Costa Rica S.A.|Black List: No|Use Type: Residential
178.104.148.240:38293:DVSkwr5ejc:zQ6C0nQ|99.246.190.80|Canada|Ontario|Mississauga|L5R|Rogers Communications Canada Inc.|Black List: No|Use Type: Residential
152.53.36.101:35287:DVSgidpshg:Sa4rvk7|196.32.248.13|South Africa|KwaZulu-Natal|Durban|4001|Sadv KZN Pool1|Black List: No|Use Type: Residential
178.104.148.240:38293:DVSdc37wd0:VpPruW4|90.101.233.180|France|Grand Est|Thionville|57100|TVCCONV|Black List: No|Use Type: Residential
162.55.188.17:45021:DVSz951hko:S10MVXk|87.247.197.73|Austria|Tyrol|Telfs|6410|Gemeindewerke Telfs Ges.m.b.H|Black List: No|Use Type: Residential
152.53.36.101:35287:DVS23xyh3c:PZChkUY|92.253.193.112|Uzbekistan|Tashkent|Tashkent||PE Luseya Plyus|Black List: No|Use Type: Residential
152.53.36.101:35287:DVS40ohbtj:CyLpNV6|178.90.192.122|Kazakhstan|Astana|Astana||JSC Kazakhtelecom|Black List: No|Use Type: Residential
152.53.36.101:35287:DVSz216io6:n7sjHzs|5.59.231.27|Kyrgyzstan|Gorod Bishkek|Bishkek||Skynet Telecom, LLC|Black List: No|Use Type: Residential
152.53.36.101:35287:DVShciysfz:xTvMJx7|37.231.157.231|Kuwait|Al Asimah|Kuwait City||Kuwait Telecommunication Company (Under Association)|Black List: No|Use Type: Residential
152.53.36.101:35287:DVSo3tzsc4:4NUO04f|46.124.146.141|Austria|Styria|Graz|8020|T-Mobile Austria GmbH|Black List: No|Use Type: Cellular
152.53.36.101:35287:DVSddzapz6:KaSD4nO|138.97.160.107|Nicaragua|Managua Department|Managua||CASAVISION, S.A.|Black List: No|Use Type: Residential
152.53.36.101:35287:DVSjogkxsr:b00O9cv|181.188.160.17|Bolivia|La Paz Department|La Paz||Telefónica Celular de Bolivia S.A.|Black List: No|Use Type: Residential
152.53.36.101:35287:DVS9fc190p:hyNS82d|41.73.123.63|Mali|Bamako|Bamako||IKATEL SA|Black List: No|Use Type: Residential
152.53.36.101:35287:DVS6n59roz:xFDMVGA|181.123.90.126|Paraguay|Asunción|Asunción||Telecel S.A.|Black List: No|Use Type: Residential
178.104.149.94:43563:DVS7zqegee:1RIiqHm|85.86.242.229|Spain|Canary Islands|Arrecife|35500|Xtra Telecom S.A.|Black List: No|Use Type: Residential
152.53.36.101:35287:DVS27xlii2:OfKb7G4|202.53.141.30|Bangladesh|Dhaka Division|Gazipur|1702|Bottola Cyber|Black List: No|Use Type: Residential
152.53.36.101:35287:DVSoux1vbv:bOeMQrn|129.222.147.18|Kenya|Nairobi|Nairobi||Space Exploration Technologies Corporation|Black List: No|Use Type: Residential
178.104.148.240:38293:DVSlcv7zdz:P4Pc9JV|88.148.42.84|Spain|Madrid|Madrid|28005|Aire Networks Del Mediterraneo SL Unipersonal|Black List: No|Use Type: Residential
162.55.188.17:45021:DVS29q4j4l:ewbZzrK|189.203.106.105|Mexico|Guanajuato|Irapuato|36590|Total Play Telecomunicaciones SA De CV|Black List: No|Use Type: Residential
162.55.188.17:45021:DVSi4ykqqc:iRxS92P|94.43.252.71|Georgia|Tbilisi|Tbilisi||JSC "Silknet"|Black List: No|Use Type: Residential
178.104.148.240:38293:DVSpzdelig:GCn2Bgi|90.112.111.205|France|Rhône-Alpes|Grenoble|38000|France Telecom Orange|Black List: No|Use Type: Residential
152.53.36.101:35287:DVSguh4wbt:NJICcTC|37.131.106.223|Bahrain|Manama|Manama|09834|VIVA|Black List: No|Use Type: Residential
162.55.188.17:45021:DVSt08cqlu:W3YnL0m|154.159.237.26|Kenya|Nairobi County|Nairobi|09831|Airtel KE Mobile & Fixed Internet|Black List: No|Use Type: Cellular
152.53.36.101:35287:DVS3hv4jgr:CUCo1KK|185.70.52.75|Georgia|Tbilisi|Tbilisi||Magticom Ltd.|Black List: No|Use Type: Residential
162.55.188.17:45021:DVSm6p1k87:y4IonsC|24.55.161.211|Puerto Rico|Hatillo|Carrizales||Liberty Communications of Puerto Rico LLC|Black List: No|Use Type: Residential
162.55.188.17:45021:DVS2xgvezf:1F5DfSH|191.126.85.38|Chile|Santiago Metropolitan|Santiago|34033|TELEFÓNICA CHILE S.A.|Black List: No|Use Type: Residential
152.53.36.101:35287:DVSc33nlaf:8TRJiRY|Unknown|Unknown|Unknown|Unknown|Unknown|Unknown|Black List: No|Use Type: Residential
152.53.36.101:35287:DVSnd78gv0:jF5Z2co|106.219.120.156|India|Haryana|Faridabad|121003|Bharti Airtel Limited|Black List: No|Use Type: Residential
152.53.36.101:35287:DVSt7qvin0:HlwSQub|91.106.42.69|Iraq|Baghdad|Baghdad||Liqaa Telecom Ltd|Black List: No|Use Type: Residential
178.104.149.94:43563:DVSnol3dki:ZE3J6KR|172.56.170.12|United States|California|Sacramento|95828|T-Mobile USA, Inc.|Black List: No|Use Type: Cellular
178.104.148.240:38293:DVS68o4fv1:TQkvLP4|75.115.72.55|United States|Florida|Palm Harbor|34684|Charter Communications|Black List: No|Use Type: Residential
152.53.36.101:35287:DVSkr9lh55:UINvy0j|41.83.45.126|Senegal|Dakar|Dakar||Pool6 IPP Bas6|Black List: No|Use Type: Residential
178.104.148.240:38293:DVSj7eugmt:1FiiYqa|172.112.75.101|United States|California|Los Angeles|90011|Charter Communications|Black List: No|Use Type: Residential
152.53.36.101:35287:DVS65zog2p:zgULbWy|146.158.94.19|Uzbekistan|Tashkent|Tashkent||IPAK YOL MChJ|Black List: No|Use Type: Residential
178.104.148.240:38293:DVSlj3yrad:xuvhPl4|98.211.244.42|United States|Florida|Vero Beach|32963|Comcast Cable Communications, LLC|Black List: No|Use Type: Residential
178.104.149.94:43563:DVSx3hipaa:3KIEEV6|172.56.99.92|United States|Florida|Tampa|33612|T-Mobile USA, Inc.|Black List: No|Use Type: Cellular
162.55.188.17:45021:DVS4qa06cq:gIc1FoG|212.129.85.172|Ireland|Leinster|Dublin|D03|METEOR-GPRS|Black List: No|Use Type: Residential
152.53.36.101:35287:DVS523hrsw:iFSMJr1|130.0.28.14|Albania|Shkodër County|Shkodër||IBC Business|Black List: No|Use Type: Residential
178.104.149.94:43563:DVSkgo85ic:wjmq6kq|75.217.116.15|United States|Texas|Houston|77021|Verizon Business|Black List: No|Use Type: Residential
152.53.36.101:35287:DVSy8j1ug4:nN9TrUS|31.166.16.210|Saudi Arabia|Mecca Region|Jeddah||Etihad Etisalat|Black List: No|Use Type: Residential
152.53.36.101:35287:DVSinyctm8:drUgj1Y|109.81.88.25|Czechia|Prague|Prague|150 00|Telefonica O2 Czech Republic, a.s.|Black List: No|Use Type: Residential
152.53.36.101:35287:DVSyqt8gc1:SN9kKPl|178.78.161.153|Armenia|Yerevan|Yerevan||Ucom CJSC|Black List: No|Use Type: Residential
152.53.36.101:35287:DVSmxvr89q:fMr5yhD|41.158.158.233|Gabon|Estuaire|Libreville||GT 41|Black List: No|Use Type: Residential
162.55.188.17:45021:DVS77jhks2:IyCTF5n|193.81.175.109|Austria|Vienna|Vienna|1230|A1 Telekom Austria AG|Black List: No|Use Type: Residential
152.53.36.101:35287:DVSni0x1oj:jKmjiIp|193.106.51.252|Kyrgyzstan|Osh Region|Osh||NUR Telecom LLC|Black List: No|Use Type: Residential
162.55.188.17:45021:DVS4a8ntp3:4ZErXA1|201.237.191.198|Costa Rica|Provincia de San José|San José|10101|Instituto Costarricense de Electricidad y Telecom.|Black List: No|Use Type: Residential
178.104.148.240:38293:DVSjrxdu2j:OSCVP1l|76.32.199.144|United States|California|Rialto|92376|Charter Communications|Black List: No|Use Type: Residential
162.55.188.17:45021:DVSzcdlujm:tJoQngz|198.245.107.189|Puerto Rico|San Juan|Eleanor Roosevelt||Liberty Communications of Puerto Rico LLC|Black List: No|Use Type: Residential
162.55.188.17:45021:DVSwwj35on:MuBcvDk|154.160.16.39|Ghana|Greater Accra Region|Accra||Scancom Limited|Black List: No|Use Type: Residential
162.55.188.17:45021:DVSigj6qx7:7rKy9vq|154.160.16.92|Ghana|Greater Accra Region|Accra||Scancom Limited|Black List: No|Use Type: Residential
162.55.188.17:45021:DVStk0a025:8lr0ucg|82.28.86.188|United Kingdom|England|Birmingham|B26|Virgin Media|Black List: No|Use Type: Residential
91.99.95.238:43185:kq7t2sglyn:Q8aPOhe1CN|172.59.67.242|United States|Florida|Jacksonville|32209|T-Mobile USA, Inc.|Black List: No|Use Type: Cellular
91.99.95.238:43185:hua6lfc93x:vEsJoSiEZH|71.81.232.71|United States|North Carolina|Boone|28607|Charter Communications LLC|Black List: No|Use Type: Residential
89.167.126.207:33329:00n5wke37i:yhtt01cemB|69.156.126.131|Canada|Ontario|North York|M3N|Bell Canada|Black List: No|Use Type: Residential
91.99.95.238:43185:69v8nd8i2j:mbn6fLlPM4|67.248.10.81|United States|New York|Buffalo|14222|Charter Communications|Black List: No|Use Type: Residential
91.99.95.238:43185:65143d1ct0:BTgnChLKQl|91.141.78.176|Austria|Vienna|Vienna|1020|Network of Hutchison Drei Austria GmbH => NAT|Black List: No|Use Type: Residential
91.99.95.238:43185:8rbj98dts6:2mapdcwDB7|47.148.76.76|United States|California|Norwalk|90650|Frontier Communications Corporation|Black List: No|Use Type: Residential
91.99.95.238:43185:0b0hbje3gh:kfLkNe0LQw|142.105.129.213|United States|New York|Halfmoon|12065|Charter Communications Inc|Black List: No|Use Type: Residential
89.167.126.207:33329:3d0czhknm8:XOumjCbxBq|172.58.132.110|United States|Florida|Miami|33142|T-Mobile USA, Inc.|Black List: No|Use Type: Cellular
89.167.126.207:33329:kqk6215zmw:fkmBAj4vBN|172.58.167.54|United States|Illinois|Chicago|60602|T-Mobile USA, Inc.|Black List: No|Use Type: Cellular
91.99.95.238:43185:5vh2snay0i:asrkhil6XM|185.61.84.59|Czechia|Ústecký kraj|Ústí nad Labem|400 01|AmigoNet s.r.o.|Black List: No|Use Type: Residential
91.99.95.238:43185:jwqf095ul2:wo78Rbzb0H|78.157.167.86|Czechia|Moravskoslezský kraj|Český Těšín|737 01|SilesNet Network|Black List: No|Use Type: Residential
89.167.126.207:33329:kx52c6phud:4nbwdECizx|68.61.62.140|United States|Michigan|Melvindale|48122|Comcast Cable Communications, LLC|Black List: No|Use Type: Residential
89.167.126.207:33329:lp6xhi4c36:rVwUCzv2M0|114.75.148.105|Australia|Queensland|Gold Coast|4220|SingTel Optus Pty Ltd|Black List: No|Use Type: Residential
152.53.36.101:35287:DVSvohzr7b:k5K7ToD|Unknown|Unknown|Unknown|Unknown|Unknown|Unknown|Black List: No|Use Type: Residential
91.99.95.238:43185:4ga83btbqi:J43XfpMDPq|174.89.64.164|Canada|Ontario|Scarborough|M1C|Bell Canada|Black List: No|Use Type: Residential
91.99.95.238:43185:quvj8ui23w:490J2fIT6n|142.117.180.174|Canada|Quebec|Montreal|H3N|Bell Canada|Black List: No|Use Type: Residential
89.167.126.207:33329:gpae38zuxa:xHSJgNJa1o|66.130.198.161|Canada|Quebec|Laval|H7N|Videotron Ltee|Black List: No|Use Type: Cellular
152.53.36.101:35287:DVSmwcds8t:yM2PH0C|Unknown|Unknown|Unknown|Unknown|Unknown|Unknown|Black List: No|Use Type: Residential
91.99.95.238:43185:ywf25s9a84:eqOUbpltI3|217.155.198.22|United Kingdom|England|Cowley|OX4|Zen Internet Ltd|Black List: No|Use Type: Residential
89.167.126.207:33329:81hkrn6a4f:PVd9hVwH0U|99.250.154.191|Canada|Ontario|Kitchener|N2E|Rogers Communications Canada Inc.|Black List: No|Use Type: Residential
89.167.126.207:33329:a1z0scrnra:wbbjJStrU0|174.115.59.163|Canada|Ontario|Ottawa|K1N|Rogers Communications Canada Inc.|Black List: No|Use Type: Residential
89.167.126.207:33329:ms8ofa5tkn:EnVtkQWkf4|77.99.221.7|United Kingdom|England|Walsall|WS3|Virgin Media|Black List: No|Use Type: Residential
91.99.95.238:43185:xmj0jklb6a:UvqpTDe5RW|45.146.8.227|United Kingdom|England|London|WC2N|Community Fibre Limited|Black List: No|Use Type: Residential
89.167.126.207:33329:fqckykio54:FgnH1ppFb6|99.234.90.171|Canada|Ontario|Brampton|L6P|Rogers Communications Canada Inc.|Black List: No|Use Type: Residential
91.99.95.238:43185:adbq2kowi9:zr92nY2D9V|87.145.72.151|Germany|Baden-Wurttemberg|Öhringen|74613|Deutsche Telekom AG|Black List: No|Use Type: Residential
91.99.95.238:43185:nmb5b7arxs:6QMniPJgSJ|82.20.135.47|United Kingdom|England|Derby|DE23|Virgin Media Limited|Black List: No|Use Type: Residential
89.167.126.207:33329:n7mqnk5gf7:eZ24LRXXvQ|94.4.137.131|United Kingdom|England|Manchester|M40|Sky UK Limited|Black List: No|Use Type: Residential
91.99.95.238:43185:hksowq09rm:rtfPnUDvyd|82.34.51.4|United Kingdom|England|Blackpool|FY4|Virgin Media|Black List: No|Use Type: Residential
91.99.95.238:43185:zo0r6izqjn:IUXZGKtzZc|98.163.36.176|United States|California|Ladera Ranch|92694|Cox Communications Inc.|Black List: No|Use Type: Residential
91.99.95.238:43185:fx8ln5s23a:d1D2oFaLHB|80.194.142.121|United Kingdom|England|Blaydon|NE21|Virgin Media Limited|Black List: No|Use Type: Residential
91.99.95.238:43185:fdzx1qnkfk:1hWMk2nStE|143.105.195.146|Canada|Ontario|Toronto||Space Exploration Technologies Corporation|Black List: No|Use Type: Residential
89.167.126.207:33329:8tk03lku41:gAbQzAgzVs|107.136.39.68|United States|Florida|Rockledge|32955|AT&T Enterprises, LLC|Black List: No|Use Type: Residential
91.99.95.238:43185:el4b0nvhtp:vvc4qvxCm8|142.120.221.48|Canada|Ontario|Toronto|M4N|Bell Canada|Black List: No|Use Type: Residential
89.167.126.207:33329:dfcp2ios4y:17Gs7fSs0e|99.253.125.84|Canada|Ontario|Brantford|N3R|Rogers Communications Canada Inc.|Black List: No|Use Type: Residential
91.99.95.238:43185:hgaeuac598:YRiRmov3ug|94.9.160.86|United Kingdom|England|Bournemouth|BH3|Sky UK Limited|Black List: No|Use Type: Residential
91.99.95.238:43185:afamw2q12b:wY8Qj3Z1y3|45.2.243.152|Canada|Ontario|Chatham|N7L|Frontier Networks|Black List: No|Use Type: Residential
91.99.95.238:43185:5vn8xp7qul:wrHS2wZWj8|79.215.220.161|Germany|State of Berlin|Berlin|10115|Deutsche Telekom AG|Black List: No|Use Type: Residential
91.99.95.238:43185:ib4n4k9lup:U9K0XxCxZA|74.130.213.245|United States|Ohio|Newton Falls|44444|Charter Communications|Black List: No|Use Type: Residential
91.99.95.238:43185:r4wj6r86ol:WwAGPXAiFo|174.168.134.176|United States|Massachusetts|Quincy|02169|Comcast Cable Communications, LLC|Black List: No|Use Type: Residential
91.99.95.238:43185:zer4kcpg95:qxoI4quord|149.22.157.15|United Kingdom|England|London|WC2N|Community Fibre Limited|Black List: No|Use Type: Residential
91.99.95.238:43185:535oxyeuqf:wnNavUysut|176.27.206.23|United Kingdom|England|Manchester|M34|Sky UK Limited|Black List: No|Use Type: Residential
89.167.126.207:33329:0fem0wsbzp:jZhrxIQfJf|45.150.145.53|United Kingdom|England|London|WC2N|Community Fibre Limited|Black List: No|Use Type: Residential
91.99.95.238:43185:bp4r9t69el:OQFiPlOdVX|97.236.59.234|United States|Pennsylvania|Irwin|15642|Verizon Business|Black List: No|Use Type: Residential
91.99.95.238:43185:04dbn2vebd:mXjDFLtW5C|172.59.211.248|United States|New Jersey|Newark|07107|T-Mobile USA, Inc.|Black List: No|Use Type: Cellular
91.99.95.238:43185:k6fae9uf0b:8vbLoDCZCB|81.111.190.234|United Kingdom|England|Bradford|BD3|Virgin Media|Black List: No|Use Type: Residential
89.167.126.207:33329:yr9t8j399x:is40kBE6zX|81.99.87.186|United Kingdom|England|Darlington|DL3|Virgin Media|Black List: No|Use Type: Residential
89.167.126.207:33329:n0tcc42e39:QjRsQjF35K|23.124.105.63|United States|California|Palo Alto|94303|AT&T Enterprises, LLC|Black List: No|Use Type: Residential
91.99.95.238:43185:hqfx4w0dhf:Y7JybURPQt|2.98.79.219|United Kingdom|England|Leeds|LS25|TalkTalk|Black List: No|Use Type: Residential
91.99.95.238:43185:swgq6r7vpm:4yZdZ2QD6C|174.166.169.55|United States|New Jersey|Carteret|07008|Comcast Cable Communications, LLC|Black List: No|Use Type: Residential
89.167.126.207:33329:fin3w9f0ys:cfMlwb0CaL|69.118.187.38|United States|New York|Mastic|11950|Cablevision Systems Corp.|Black List: No|Use Type: Residential
89.167.126.207:33329:2lzwtbfq0m:Eps4tOJNS6|188.30.87.44|United Kingdom|Wales|Cardiff|CF24|Hutchison 3G|Black List: No|Use Type: Residential
89.167.126.207:33329:8idnojajzh:wNi1qVXz7b|2.205.141.176|Germany|North Rhine-Westphalia|Gelsenkirchen|45888|Vodafone GmbH|Black List: No|Use Type: Residential
89.167.126.207:33329:g7khdv5mxr:p3KEK1F4C8|142.183.237.115|Canada|Ontario|Stittsville|K2S|Bell Canada|Black List: No|Use Type: Residential
91.99.95.238:43185:xdfu3grp4y:m0SrGiiARV|24.141.111.208|Canada|Ontario|Burlington|L7L|Cogeco Communications Inc.|Black List: No|Use Type: Residential
89.167.126.207:33329:xsdaryl5fq:QMOroKpUVE|99.248.191.127|Canada|Ontario|Oshawa|L1J|Rogers Communications Canada Inc.|Black List: No|Use Type: Residential
91.99.95.238:43185:wywodyq4qo:tp4l0Ecm9E|47.205.145.6|United States|Florida|Port Richey|34668|Frontier Communications Solutions|Black List: No|Use Type: Residential
91.99.95.238:43185:76atjgnc0b:wH5Vq1riIt|86.140.75.49|United Kingdom|Scotland|Coatbridge|ML5|BT Public Internet Service|Black List: No|Use Type: Residential
89.167.126.207:33329:gds7feg9gp:ShCFL7Iiuh|72.136.103.227|Canada|Ontario|Toronto|M5N|Rogers Communications Canada Inc.|Black List: No|Use Type: Residential
89.167.126.207:33329:zxwpjqhjqt:90wm97b45U|96.242.241.82|United States|New Jersey|Caldwell|07006|Verizon Business|Black List: No|Use Type: Residential
91.99.95.238:43185:tea15m6fwv:40PYUuYIsz|109.181.122.195|United Kingdom|England|Sheffield|S9|EE Limited|Black List: No|Use Type: Residential
91.99.95.238:43185:rxv5vwyalc:ZLHM4C8Uyc|92.26.50.189|United Kingdom|England|Northampton|NN5|TalkTalk|Black List: No|Use Type: Residential
89.167.126.207:33329:v0gbo0bd07:pTCSMRX7yq|165.120.30.56|United Kingdom|England|Halifax|HX3|BT Public Internet Service|Black List: No|Use Type: Residential
89.167.126.207:33329:iwb5s4ifp1:CaDDL5pJt6|94.15.48.82|United Kingdom|England|Southampton|SO19|Sky UK Limited|Black List: No|Use Type: Residential
89.167.126.207:33329:dc0zu3qwt3:0H1DtjNIdJ|99.250.146.89|Canada|Ontario|Kitchener|N2E|Rogers Communications Canada Inc.|Black List: No|Use Type: Residential
91.99.95.238:43185:k2es9ji7xf:16fHHHo1bQ|90.250.214.142|United Kingdom|Wales|Cardiff|CF11|Vodafone|Black List: No|Use Type: Residential
89.167.126.207:33329:b6w5xpycyx:32uUEnj8ls|173.34.248.249|Canada|Ontario|Ajax|L1S|Rogers Communications Canada Inc.|Black List: No|Use Type: Residential
89.167.126.207:33329:9a5yfjs0si:sngHCLEqEV|89.186.158.193|Germany|Saxony|Chemnitz|09126|PRIMACOM|Black List: No|Use Type: Residential
91.99.95.238:43185:lofgh6uok3:rtTGYrlyc2|5.133.46.157|United Kingdom|England|South Shields|NE33|Grain Communications Limited|Black List: No|Use Type: Residential
91.99.95.238:43185:hjreze6p4g:Zisnjw7TS1|81.156.114.231|United Kingdom|Wales|Cardiff|CF14|BT Public Internet Service|Black List: No|Use Type: Residential
89.167.126.207:33329:jt2iqeqpcl:O0rxpFmW9F|2.98.4.199|United Kingdom|England|Manchester|M13|TalkTalk|Black List: No|Use Type: Residential
91.99.95.238:43185:x2m7hfmaqv:MVoce5iHk1|150.228.177.148|Mongolia|Ulaanbaatar Hot|Ulaanbaatar||Space Exploration Technologies Corporation|Black List: No|Use Type: Residential
91.99.95.238:43185:dgr3d2bklo:kXbMgRWdiU|92.191.104.18|Spain|Andalusia|Benamaurel|18817|Orange Spain|Black List: No|Use Type: Residential
89.167.126.207:33329:n8eetay4gt:yvNOekhNRo|82.13.240.2|United Kingdom|England|Manchester|M34|Virgin Media Limited|Black List: No|Use Type: Residential
89.167.126.207:33329:rz4ci9orzz:bnEFi064f4|Unknown|Unknown|Unknown|Unknown|Unknown|Unknown|Black List: No|Use Type: Residential
91.99.95.238:43185:942xkgh0lx:tEw4OXoat2|92.209.159.199|Germany|North Rhine-Westphalia|Düsseldorf|40629|Vodafone GmbH|Black List: No|Use Type: Residential
89.167.126.207:33329:u079j603b2:UT2VNYQwtE|86.173.252.128|United Kingdom|England|Liverpool|L13|BT Public Internet Service|Black List: No|Use Type: Residential
89.167.126.207:33329:5krll8r5k0:JOXITUZNZr|83.106.61.19|United Kingdom|England|Wigan|WN2|VODAFONE|Black List: No|Use Type: Residential
91.99.95.238:43185:evkg75vgf1:KD6hr0l0yw|81.86.19.49|United Kingdom|England|Manchester|M99|TalkTalk|Black List: No|Use Type: Residential
91.99.95.238:43185:olz7555ciu:MSkqyWG7Bi|67.204.227.69|Canada|Ontario|Espanola|P5E|Persona Communications Inc.|Black List: No|Use Type: Residential
91.99.95.238:43185:63hc4dgs4s:6qm6k2VFlt|76.67.174.51|Canada|Ontario|East Gwillimbury|L9N|Bell Canada|Black List: No|Use Type: Residential
91.99.95.238:43185:ut96mtfm5e:g6RiVHYdPJ|24.89.198.181|Canada|Nova Scotia|Sydney|B1P|EastLink|Black List: No|Use Type: Residential
91.99.95.238:43185:s80heyjxae:jj2hQFynPD|77.98.173.119|United Kingdom|England|Hounslow|TW3|Virgin Media|Black List: No|Use Type: Residential
91.99.95.238:43185:np5igfowpc:QcDAozK64k|86.198.146.78|France|Provence-Alpes-Côte d'Azur|Marseille|13012|France Telecom|Black List: No|Use Type: Residential
91.99.95.238:43185:ptn7q8hovj:h4weFfE5Zi|68.198.78.197|United States|New York|Brooklyn|11236|Cablevision Systems Corp.|Black List: No|Use Type: Residential
91.99.95.238:43185:9asfzjm526:WOpL6M33Os|73.226.28.204|United States|New Jersey|Jersey City|07304|Comcast Cable Communications, LLC|Black List: No|Use Type: Residential
91.99.95.238:43185:6daecvivmi:sLQVgZPL8b|5.77.207.68|Armenia|Yerevan|Yerevan||Ucom|Black List: No|Use Type: Residential
89.167.126.207:33329:t3vgtbye0a:lQZFsBkdUg|68.250.41.200|United States|Texas|San Antonio|78228|AT&T Enterprises, LLC|Black List: No|Use Type: Residential
91.99.95.238:43185:3ckj5yfbcv:o4OGgOKswk|58.69.131.59|Philippines|Metro Manila|Makati City|1551|Philippine Long Distance Telephone Co.|Black List: No|Use Type: Residential
89.167.126.207:33329:txcwf1klki:rWn2WkKtY0|88.97.214.134|United Kingdom|England|Oxford|OX4|YouFibre Limited|Black List: No|Use Type: Residential
91.99.95.238:43185:hr78ocu9m9:rggOWxqAWd|149.50.229.149|Türkiye|Istanbul|Istanbul|34134|Cogent Communications|Black List: No|Use Type: Residential
91.99.95.238:43185:1gsd6efz8c:udzWRbodq4|139.47.64.191|Spain|Madrid|Madrid|28030|Xtra Telecom S.A.|Black List: No|Use Type: Residential
89.167.126.207:33329:jhyxjwdhvu:CnnYreu2r3|88.97.179.228|United Kingdom|England|Manchester|M14|Zen Internet Ltd|Black List: No|Use Type: Residential
89.167.126.207:33329:qtqak6yl9c:fq0c0G84gq|90.205.170.168|United Kingdom|England|Rochester|ME2|Sky UK Limited|Black List: No|Use Type: Residential
89.167.126.207:33329:h6kklonvk0:2reKtXCkF3|90.202.61.82|United Kingdom|Wales|Pentre|CF41|Sky UK Limited|Black List: No|Use Type: Residential
91.99.95.238:43185:yuet8qr0lk:oISMEC5TJD|92.114.154.96|Moldova|Chișinău Municipality|Chisinau|MD-2000|JSC MOLDTELECOM SA|Black List: No|Use Type: Residential
89.167.126.207:33329:g61ka71kry:v27FgOYqn3|99.244.129.235|Canada|New Brunswick|Fredericton|E3A|Rogers Communications Canada Inc.|Black List: No|Use Type: Residential
89.167.126.207:33329:enlxepnwbk:uvOgxq4rHr|69.156.97.24|Canada|Ontario|North York|M3H|Bell Canada|Black List: No|Use Type: Residential
89.167.126.207:33329:apctgtup30:lDLuUXPpNg|83.135.188.88|Germany|North Rhine-Westphalia|Wuppertal|42289|VT-POOL 5 BRAS ber1001aihr001|Black List: No|Use Type: Residential
89.167.126.207:33329:xvidgb2wmr:hsLG59N4UV|151.228.76.88|United Kingdom|Scotland|Glasgow|G13|Sky UK Limited|Black List: No|Use Type: Residential
91.99.95.238:43185:9nxpc57y72:aVh8G6HEdM|92.208.78.73|Germany|Hesse|Frankfurt am Main|60316|Vodafone GmbH|Black List: No|Use Type: Residential
89.167.126.207:33329:cwackxm8fs:PFSg0T79cA|Unknown|Unknown|Unknown|Unknown|Unknown|Unknown|Black List: No|Use Type: Residential
89.167.126.207:33329:fwp0f9xn1u:e69QNMDVW3|86.177.84.150|United Kingdom|England|West Hallam|DE7|BT Public Internet Service|Black List: No|Use Type: Residential
89.167.126.207:33329:jlkffp9w87:XJHkbkURSF|84.70.26.248|United Kingdom|England|Leeds|LS10|Vodafone|Black List: No|Use Type: Residential
89.167.126.207:33329:uflqdl0r01:RU88MrsOyv|80.132.190.198|Germany|Schleswig-Holstein|Kiel|24103|Deutsche Telekom AG|Black List: No|Use Type: Residential
91.99.95.238:43185:3i2lt0t3p8:etgoVVvTn1|91.196.231.1|Ukraine|Zakarpattia Oblast|Vynohradiv|90300|Sergey Kus|Black List: No|Use Type: Residential
91.99.95.238:43185:h0vvk41txr:VQ4qP65S3t|5.83.51.131|Spain|Andalusia|Morón de la Frontera|41530|Aire Networks Del Mediterraneo SL Unipersonal|Black List: No|Use Type: Residential
91.99.95.238:43185:s99yt9sj22:YkP2EUk1X0|66.181.179.110|Mongolia|Ulaanbaatar|Ulan Bator||Univision LLC|Black List: No|Use Type: Residential
91.99.95.238:43185:9ls2q9a04z:5RiGrSsQpd|175.100.10.190|Cambodia|Phnom Penh|Phnom Penh||VIETTEL (CAMBODIA) PTE., LTD|Black List: No|Use Type: Residential
89.167.126.207:33329:qzalnu5hb3:6JPS1Se6nq|2.127.72.160|United Kingdom|England|Maidenhead|SL6|Sky UK Limited|Black List: No|Use Type: Residential
89.167.126.207:33329:5y9aapr7fx:bfFFtQ5rS6|80.43.16.7|United Kingdom|Scotland|Glasgow|G31|TalkTalk|Black List: No|Use Type: Residential
89.167.126.207:33329:9dsg1l8lh8:QkqZq4O0ae|94.11.77.44|United Kingdom|England|City of London|EC3N|Sky UK Limited|Black List: No|Use Type: Residential
91.99.95.238:43185:xeirnkbly5:B4cB0YefYe|175.100.33.41|Cambodia|Phnom Penh|Phnom Penh||VIETTEL (CAMBODIA) PTE., LTD|Black List: No|Use Type: Residential
91.99.95.238:43185:ycystogsuh:T8wYtybX7A|190.167.147.128|Dominican Republic|Nacional|Santo Domingo|10201|Compañía Dominicana de Teléfonos S. A.|Black List: No|Use Type: Residential
89.167.126.207:33329:dwow9xp9tb:Sb3WTNPIxG|90.214.30.2|United Kingdom|Wales|Ferndale|CF43|Sky UK Limited|Black List: No|Use Type: Residential
91.99.95.238:43185:1xfzauzkff:U0Xkf2bfg1|206.62.48.53|Lebanon|Mohafazat Mont-Liban|Broummâna||Cogent Communications|Black List: No|Use Type: Residential
89.167.126.207:33329:70z3lmqn0g:aKOkxHQ1OD|94.134.89.112|Germany|State of Berlin|Berlin|10707|1&1 Versatel GmbH|Black List: No|Use Type: Residential
89.167.126.207:33329:e1j0sterdn:kuzzSAVZLS|174.163.191.31|United States|Georgia|Atlanta|30306|Comcast Cable Communications, LLC|Black List: No|Use Type: Residential
89.167.126.207:33329:91xn6lbgt3:R4PYN7wEBg|206.75.57.250|Canada|Alberta|Spruce Grove|T7X|TELUS Communications Inc|Black List: No|Use Type: Residential
91.99.95.238:43185:98ae3zrn9w:QG4Ls1ggMk|Unknown|Unknown|Unknown|Unknown|Unknown|Unknown|Black List: No|Use Type: Residential
91.99.95.238:43185:f62rqraiq5:B1LdoUqvdw|197.28.20.238|Tunisia|Sfax Governorate|Sfax||Orange Tunisie|Black List: No|Use Type: Residential
91.99.95.238:43185:tt44tgysda:N7gvo2k8ke|104.57.22.215|United States|California|Compton|90221|AT&T Enterprises, LLC|Black List: No|Use Type: Residential
91.99.95.238:43185:lz06y2ok1r:rSmJbcm8nY|181.115.119.79|Honduras|Francisco Morazán Department|Tegucigalpa||TELECOMUNICACIONES DE GUATEMALA, SOCIEDAD ANONIMA|Black List: No|Use Type: Residential
89.167.126.207:33329:izpm3hptpt:2NTSEKJhzV|151.226.132.55|United Kingdom|England|Leeds|LS26|Sky UK Limited|Black List: No|Use Type: Residential
91.99.95.238:43185:e9agce6r7h:k2E6TypuyG|93.183.178.113|Bulgaria|Plovdiv|Parvomay|4270|ESCOM Ltd|Black List: No|Use Type: Residential
89.167.126.207:33329:tih9ot1n2d:ISANxCMc7w|115.128.197.52|Australia|New South Wales|Sydney|2142|TPG Internet Pty Ltd|Black List: No|Use Type: Residential
91.99.95.238:43185:xb6su03bue:UjItKaY0Wf|67.168.114.132|United States|Washington|Seattle|98103|Comcast Cable Communications, LLC|Black List: No|Use Type: Residential
89.167.126.207:33329:02lmqy2426:d4UWZIrAl4|150.228.103.131|United Kingdom|England|London||Space Exploration Technologies Corporation|Black List: No|Use Type: Residential
91.99.95.238:43185:yjjqz2bl7y:YphS2ehhvi|24.235.159.202|Canada|Ontario|Belleville|K8N|Cogeco Cable Inc.|Black List: No|Use Type: Residential
89.167.126.207:33329:ki7a9j77tq:li8pnU65b4|192.226.226.253|Canada|Quebec|Montreal|H9C|Le Groupe Videotron Ltee|Black List: No|Use Type: Cellular
89.167.126.207:33329:k574oo2yxy:LuKw7Y5WP2|31.111.96.72|United Kingdom|England|Romford|RM1|British Telecommunications PLC|Black List: No|Use Type: Residential
91.99.95.238:43185:3kix223jpg:ZAvSyiaDjg|79.116.216.212|Spain|Castille-La Mancha|Albacete|02005|Digi Spain Telecom S.L.U.|Black List: No|Use Type: Residential
89.167.126.207:33329:isfy76g16i:qArRq1nhSL|94.1.103.135|United Kingdom|England|Nottingham|NG1|Sky UK Limited|Black List: No|Use Type: Residential
91.99.95.238:43185:0mp9rtvti5:yjhtY4up6o|181.141.130.59|Colombia|Quindío Department|Armenia|630001|EPM Telecomunicaciones S.A. E.S.P.|Black List: No|Use Type: Residential
89.167.126.207:33329:2yklo7e6lc:zxNJh70C7n|47.177.10.234|United States|California|Winchester|92596|Frontier Communications Corporation|Black List: No|Use Type: Residential
89.167.126.207:33329:sbfac6ku5t:eHo4YOBldR|147.194.92.39|Canada|Ontario|Brantford|N3S|Comwave Telecom Inc.|Black List: No|Use Type: Residential
89.167.126.207:33329:chd9dtjtxv:RpevtMkdXI|142.180.168.5|Canada|Ontario|Hamilton|L9A|Bell Canada|Black List: No|Use Type: Residential
89.167.126.207:33329:263twycamn:1CY4NvMryo|81.140.232.179|United Kingdom|England|Consett|DH8|BT Public Internet Service|Black List: No|Use Type: Residential
89.167.126.207:33329:z05kka8kcc:0aWDoqxWjX|89.240.170.136|United Kingdom|England|Sheffield|S13|TalkTalk|Black List: No|Use Type: Residential
89.167.126.207:33329:1rikuwvnps:MLEpyYRUvX|173.34.205.165|Canada|Ontario|Barrie|L9J|Rogers Communications Canada Inc.|Black List: No|Use Type: Residential
91.99.95.238:43185:u3rrq8sy5e:mwQ7kqUV4Z|77.98.125.68|United Kingdom|England|Blackpool|FY4|Virgin Media|Black List: No|Use Type: Residential
89.167.126.207:33329:79z2g4pr7f:u7pUNfimfU|170.133.240.106|Canada|Ontario|Mississauga|L5B|Carrytel|Black List: No|Use Type: Residential
178.104.148.240:38293:DVS8oekna1:6lyoKLO|Unknown|Unknown|Unknown|Unknown|Unknown|Unknown|Black List: No|Use Type: Residential
178.104.148.240:38293:DVS1rlfjd5:Yg6DBoh|75.82.251.14|United States|California|Palmdale|93551|Charter Communications|Black List: No|Use Type: Residential
178.104.148.240:38293:DVSvouut32:gX9pBpJ|Unknown|Unknown|Unknown|Unknown|Unknown|Unknown|Black List: No|Use Type: Residential
178.104.148.240:38293:DVSzjssk8y:IaVGCnA|71.218.118.246|United States|Colorado|Denver|80211|CenturyLink Communications, LLC|Black List: No|Use Type: Residential
178.104.148.240:38293:DVSlzqlubo:RCDxJKi|76.39.89.129|United States|Wisconsin|Milwaukee|53215|Charter Communications|Black List: No|Use Type: Residential
178.104.148.240:38293:DVS06jki09:x8369Id|68.224.106.73|United States|Nevada|Las Vegas|89169|Cox Communications Inc.|Black List: No|Use Type: Residential
178.104.148.240:38293:DVS0rm5h4w:6WRGkLu|73.181.67.175|United States|Colorado|Denver|80209|Comcast Cable Communications|Black List: No|Use Type: Residential
178.104.148.240:38293:DVSzxvyuf8:bqrk5Fq|90.243.248.223|United Kingdom|England|Catford|SE6|Energis UK|Black List: No|Use Type: Residential
178.104.148.240:38293:DVS7xg9mls:b1oq2xz|86.19.236.56|United Kingdom|England|Stoke-on-Trent|ST6|Virgin Media|Black List: No|Use Type: Residential
178.104.148.240:38293:DVSqudfia5:ObjnsCn|176.24.37.78|United Kingdom|England|Newton Abbot|TQ12|Sky UK Limited|Black List: No|Use Type: Residential
162.55.188.17:45021:DVSnql2lb6:wO7K4kv|143.244.57.86|France|Île-de-France|Paris|75001|Datacamp Limited|Black List: No|Use Type: Residential
178.104.148.240:38293:DVStjwpu9n:rkOtc0a|86.156.227.146|United Kingdom|England|City of London|EC4R|BT Public Internet Service|Black List: No|Use Type: Residential
178.104.148.240:38293:DVSa2kswy4:Vqdyh48|217.254.106.22|Germany|Saxony|Plauen|08523|Deutsche Telekom AG|Black List: No|Use Type: Residential
178.104.148.240:38293:DVSj4diznw:XPCCK10|94.134.183.93|Germany|Baden-Wurttemberg|Karlsruhe|76133|1&1 Versatel GmbH|Black List: No|Use Type: Residential
178.104.148.240:38293:DVSzojitw4:cY3GgRe|92.208.169.247|Germany|Baden-Wurttemberg|Heilbronn|74076|Vodafone GmbH|Black List: No|Use Type: Residential
178.104.148.240:38293:DVSj09nf6c:KDbgOar|99.241.96.125|Canada|Ontario|North York|M2J|Rogers Communications Canada Inc.|Black List: No|Use Type: Residential
178.104.149.94:43563:DVS8td6gla:0ucai7y|203.40.121.15|Australia|New South Wales|Sydney|2023|Telstra Internet|Black List: No|Use Type: Residential
152.53.36.101:35287:DVShybv3fh:9uECT3s|197.255.50.66|Nigeria|Lagos|Lagos||Cobranet Limited|Black List: No|Use Type: Residential
152.53.36.101:35287:DVSvnkutj1:pyedWRX|98.97.76.17|Nigeria|Lagos|Lagos||Space Exploration Technologies Corporation|Black List: No|Use Type: Residential
178.104.149.94:43563:DVS6sgnko3:74R7a3P|124.183.196.165|Australia|Victoria|Melbourne|3199|Telstra Internet|Black List: No|Use Type: Residential
152.53.36.101:35287:DVSq57vms8:e1tEqTo|105.118.9.95|Nigeria|Edo State|Benin City||Airtel Networks Limited|Black List: No|Use Type: Residential
152.53.36.101:35287:DVS7666p6y:bin7Hr4|98.97.77.192|Nigeria|Lagos|Lagos||Space Exploration Technologies Corporation|Black List: No|Use Type: Residential
178.104.148.240:38293:DVSpl10xtf:nQqp9b2|77.20.12.150|Germany|Lower Saxony|Verden an der Aller|27283|Vodafone Kabel Deutschland|Black List: No|Use Type: Residential
178.104.148.240:38293:DVSnu59pzt:QEEroIJ|84.59.125.32|Germany|Bavaria|Nuremberg|90475|ARCOR-IP|Black List: No|Use Type: Residential
178.104.148.240:38293:DVSfp2tnx3:N8qqHZC|84.147.72.131|Germany|Hesse|Bad Soden am Taunus|65812|Deutsche Telekom AG|Black List: No|Use Type: Residential
178.104.148.240:38293:DVSc95bp4j:C1ObSuH|207.89.80.147|Germany|Baden-Wurttemberg|Kornwestheim|70806|TELE AG|Black List: No|Use Type: Residential
178.104.148.240:38293:DVSmjhusig:4CHNrgw|87.154.22.175|Germany|Bavaria|Munich|80331|Deutsche Telekom AG|Black List: No|Use Type: Residential
178.104.148.240:38293:DVSashbjio:dippxv3|92.208.100.137|Germany|Hesse|Frankfurt am Main|60599|Vodafone GmbH|Black List: No|Use Type: Residential
152.53.36.101:35287:DVSby3srl3:X2xcIr7|37.106.152.169|Saudi Arabia|Mecca Region|Jeddah||Saudinet DSL|Black List: No|Use Type: Residential
178.104.148.240:38293:DVS1elqtg2:XP7PbC3|79.207.78.220|Germany|Hesse|Oberursel|61440|Deutsche Telekom AG|Black List: No|Use Type: Residential
178.104.148.240:38293:DVSln3l6ab:QjbsCIH|91.19.68.107|Germany|Saxony-Anhalt|Braunsbedra|06242|Deutsche Telekom AG|Black List: No|Use Type: Residential
152.53.36.101:35287:DVSewtqk4m:WOMl6Qi|151.255.15.86|Saudi Arabia|Mecca Region|Jeddah||STC MBB|Black List: No|Use Type: Residential
152.53.36.101:35287:DVSjb0s2xu:oZazq0d|149.109.122.137|Saudi Arabia|Medina Region|Medina||Saudi Telecom Company JSC|Black List: No|Use Type: Residential
152.53.36.101:35287:DVSo0wh5wc:8akLBmd|95.186.107.133|Saudi Arabia|Mecca Region|Jeddah||Saudi Telecom Company JSC|Black List: No|Use Type: Residential
152.53.36.101:35287:DVS82uaq96:5nts4O3|168.149.91.138|Saudi Arabia|Mecca Region|Jeddah||Saudi Telecom Company JSC|Black List: No|Use Type: Residential
152.53.36.101:35287:DVSa1ezxx4:uxh4wnb|51.36.223.103|Saudi Arabia|Mecca Region|Jeddah||Mobile Telecommunication Company Saudi Arabia Joint-Stock company|Black List: No|Use Type: Cellular
152.53.36.101:35287:DVS9sj8qwr:pIEHagR|176.19.12.0|Saudi Arabia|Mecca Region|Jeddah||Etihad Etisalat|Black List: No|Use Type: Residential
152.53.36.101:35287:DVSx4pxe20:lUjfyfD|169.148.69.126|Saudi Arabia|Mecca Region|Jeddah||Saudi Telecom Company JSC|Black List: No|Use Type: Residential
152.53.36.101:35287:DVSu8wkwob:vniWn5a|51.252.145.62|Saudi Arabia|Riyadh Region|Riyadh|09848|Saudinet|Black List: No|Use Type: Residential
152.53.36.101:35287:DVSjh2uec9:o8ZLMqZ|51.223.20.114|Saudi Arabia|Eastern Province|Dammam||Saudi Telecom Company JSC|Black List: No|Use Type: Residential
152.53.36.101:35287:DVSrjv2hjy:8ggtY0k|176.224.19.185|Saudi Arabia|Mecca Region|Jeddah||Etihad Etisalat|Black List: No|Use Type: Residential
152.53.36.101:35287:DVSgzjy0kb:QhSy6RJ|176.45.17.219|Saudi Arabia|Riyadh Region|Riyadh|09848|Saudinet|Black List: No|Use Type: Residential
152.53.36.101:35287:DVSrgbnw9j:QZsujRY|51.39.227.152|Saudi Arabia|Riyadh Region|Riyadh|09848|Mobile Telecommunication Company Saudi Arabia Joint-Stock company|Black List: No|Use Type: Cellular
152.53.36.101:35287:DVSyv9ngyz:dYZMcvJ|31.166.200.47|Saudi Arabia|Mecca Region|Jeddah||Etihad Etisalat|Black List: No|Use Type: Residential
152.53.36.101:35287:DVS7gm8vve:MFQl1Z9|37.127.84.168|Saudi Arabia|Riyadh Region|Riyadh||Etihad Etisalat|Black List: No|Use Type: Residential
152.53.36.101:35287:DVSvcfd71m:JmZzP5l|178.86.114.30|Saudi Arabia|Mecca Region|Jeddah||Saudi Telecom Company JSC|Black List: No|Use Type: Residential
152.53.36.101:35287:DVSk5llkrg:wcPTGq7|51.36.215.204|Saudi Arabia|Mecca Region|Jeddah||Zain KSA|Black List: No|Use Type: Residential
152.53.36.101:35287:DVSh8cq9dm:ryEzBAO|46.143.137.75|Saudi Arabia|Riyadh Region|Riyadh|09848|Integrated Telecom Co. Ltd|Black List: No|Use Type: Residential
152.53.36.101:35287:DVSrt5jd4s:rpTAl1g|141.179.92.200|Saudi Arabia|Eastern Province|Dammam||Saudi Telecom Company JSC|Black List: No|Use Type: Residential
152.53.36.101:35287:DVS4y0wh4f:DghCapI|159.0.140.227|Saudi Arabia|Riyadh Region|Riyadh|09848|Saudi Telecom Company JSC|Black List: No|Use Type: Residential
152.53.36.101:35287:DVSmdhwsz2:iND1BLK|175.110.172.166|Saudi Arabia|Mecca Region|Jeddah||Saudi Telecom Company JSC|Black List: No|Use Type: Residential
152.53.36.101:35287:DVSlwn1sf6:6kkPl7G|176.224.208.130|Saudi Arabia|Mecca Region|Jeddah||Internet Broadband|Black List: No|Use Type: Residential
152.53.36.101:35287:DVSq3ajyji:u9Be0Kt|51.39.130.210|Saudi Arabia|Eastern Province|Khobar||Zain KSA|Black List: No|Use Type: Residential
152.53.36.101:35287:DVS9pr4lq1:ukqCnlP|51.36.233.96|Saudi Arabia|Mecca Region|Jeddah||Mobile Telecommunication Company Saudi Arabia Joint-Stock company|Black List: No|Use Type: Cellular
152.53.36.101:35287:DVS7mkjeq8:GOlO6Ew|77.223.252.155|Saudi Arabia|Mecca Region|Jeddah||Mobile Telecommunication Company Saudi Arabia Joint-Stock company|Black List: No|Use Type: Cellular
152.53.36.101:35287:DVS62v4jtr:rsmnTxg|95.186.135.61|Saudi Arabia|Mecca Region|Jeddah||Saudi Telecom Company JSC|Black List: No|Use Type: Residential
152.53.36.101:35287:DVS1yquaol:J7pR7WS|37.107.11.223|Saudi Arabia|Medina Region|Medina||Saudinet|Black List: No|Use Type: Residential
152.53.36.101:35287:DVSbopsfgn:8ikSDmx|178.86.103.174|Saudi Arabia|Mecca Region|Jeddah||Saudi Telecom Company JSC|Black List: No|Use Type: Residential
152.53.36.101:35287:DVSea5j6sa:Cq5fixN|197.59.162.143|Egypt|Minya|Minya||TE Data|Black List: No|Use Type: Residential
152.53.36.101:35287:DVSojdf2qg:ocvbtZV|41.233.17.101|Egypt|Cairo Governorate|Cairo||TE Data|Black List: No|Use Type: Residential
152.53.36.101:35287:DVSrr4l5bn:veaoofc|168.149.43.18|Saudi Arabia|Mecca Region|Jeddah||Saudi Telecom Company JSC|Black List: No|Use Type: Residential
152.53.36.101:35287:DVSmeyns5i:RwIvAFh|159.0.62.64|Saudi Arabia|Medina Region|Medina||Saudinet|Black List: No|Use Type: Residential
152.53.54.151:37773:DVSwk56428:QQqn78H|82.129.133.161|Egypt|Giza|Ash-Shaykh Zāyid||Vodafone Data - Egypt|Black List: No|Use Type: Residential
178.104.149.94:43563:DVSryght3q:qrEOjir|180.181.251.9|Australia|Victoria|Melbourne|3122|Wideband Networks Pty Ltd|Black List: No|Use Type: Residential
178.104.148.240:38293:DVSlmqroua:gcMs3Dx|73.0.40.45|United States|Florida|Stuart|34997|Comcast Cable Communications|Black List: No|Use Type: Residential
178.104.148.240:38293:DVSdij880t:rtPtLBR|162.81.101.79|United States|Tennessee|Knoxville|37921|Knoxville Utilities Board|Black List: No|Use Type: Residential
178.104.148.240:38293:DVS3ma6bkl:XbHdQvr|173.40.41.131|United States|Minnesota|Willmar|56201|Charter Communications Inc|Black List: No|Use Type: Residential
178.104.149.94:43563:DVSijoiv0p:KKBjPXH|167.89.214.144|United States|Texas|Emory|75440|Peoples Communications Inc.|Black List: No|Use Type: Residential
178.104.148.240:38293:DVSpkrnhq7:eIxkkwr|94.10.21.73|United Kingdom|England|Rochester|ME1|Sky UK Limited|Black List: No|Use Type: Residential
178.104.148.240:38293:DVSbkeycoj:3wHkPTH|2.216.127.129|United Kingdom|England|Scarborough|YO12|Sky UK Limited|Black List: No|Use Type: Residential
91.99.95.238:43185:7otkdi4kv3:TBfR3Xst8L|76.32.241.205|United States|California|Van Nuys|91401|Charter Communications|Black List: No|Use Type: Residential
91.99.95.238:43185:wk45fqhfjm:z9x2rmeovz|68.37.17.104|United States|Michigan|St. Clair Shores|48081|Comcast Cable Communications, LLC|Black List: No|Use Type: Residential
91.99.95.238:43185:8k56101sp8:F1q1021WOj|47.144.68.117|United States|California|Chino|91710|Frontier Communications Solutions|Black List: No|Use Type: Residential
91.99.95.238:43185:8j3ichdurp:C8wrC59G81|73.125.61.84|United States|Florida|Miami|33161|Comcast Cable Communications, LLC|Black List: No|Use Type: Residential
91.99.95.238:43185:aj07t53lbl:oLPBlkeb1Z|24.46.66.132|United States|New York|The Bronx|10451|Cablevision Systems Corp.|Black List: No|Use Type: Residential
91.99.95.238:43185:aq8jyj1csi:EqFBPEhybx|76.175.51.96|United States|California|Los Angeles|90019|Charter Communications|Black List: No|Use Type: Residential
91.99.95.238:43185:xkfw41htfl:emAkBknPBn|32.220.214.196|United States|Connecticut|New Haven|06511|Southern New England Telephone Company and SNET America|Black List: No|Use Type: Residential
91.99.95.238:43185:f1xnhe2wdk:QOwkrKAhIj|172.56.15.232|United States|Utah|Springville|84663|T-Mobile USA, Inc.|Black List: No|Use Type: Cellular
91.99.95.238:43185:3egknxp9h1:CndeZSFvMQ|76.86.83.127|United States|California|San Bernardino|92405|Road Runner|Black List: No|Use Type: Residential
91.99.95.238:43185:jizazra79j:fzU6XrCd1v|193.80.25.17|Austria|Styria|Graz||A1 Telekom Austria AG|Black List: No|Use Type: Residential
91.99.95.238:43185:tw9192nfjx:ImjoeVoc2Q|47.214.123.46|United States|West Virginia|Saint Albans|25177|Suddenlink Communications|Black List: No|Use Type: Residential
91.99.95.238:43185:bo5l9lkpri:kMA0sAA9sA|89.144.196.88|Austria|Vienna|Vienna|1120|A1 Telekom Austria AG|Black List: No|Use Type: Residential
91.99.95.238:43185:xono0e2vzg:mqH8wqDknH|24.23.47.248|United States|California|Tracy|95376|Comcast Cable Communications, LLC|Black List: No|Use Type: Residential
91.99.95.238:43185:x9httdnqcx:TxLLXFQsAy|174.179.167.75|United States|Virginia|Warrenton|20187|Comcast Cable Communications, LLC|Black List: No|Use Type: Residential
91.99.95.238:43185:rux3ycpbzn:PnjGetEavz|68.1.132.151|United States|Georgia|Macon|31210|Cox Communications Inc.|Black List: No|Use Type: Residential
91.99.95.238:43185:c58q6twnpu:RFGd7UgOpU|97.200.253.220|United States|Georgia|Atlanta|30328|Verizon Business|Black List: No|Use Type: Residential
91.99.95.238:43185:zmfsucr59c:7oO2oROis5|72.191.162.58|United States|Texas|Pharr|78577|Charter Communications|Black List: No|Use Type: Residential
91.99.95.238:43185:5en2u8ehiu:IMqEn5aSyO|76.143.78.83|United States|Texas|Houston|77028|Comcast Cable Communications, LLC|Black List: No|Use Type: Residential
91.99.95.238:43185:4xrewnb7ab:OsImI5jMJn|98.222.247.35|United States|Illinois|Chicago Heights|60411|Comcast Cable Communications, LLC|Black List: No|Use Type: Residential
91.99.95.238:43185:bar1i5ww0t:qoi7LY6jVr|172.56.180.117|United States|California|Riverside|92503|T-Mobile USA, Inc.|Black List: No|Use Type: Cellular
91.99.95.238:43185:874k9ffp23:vVWaT5zvJP|91.139.42.92|Czechia|Ústecký kraj|Benešov nad Ploučnicí|407 22|T-Mobile Czech Republic|Black List: No|Use Type: Cellular
91.99.95.238:43185:8jrdm6ihq2:CVLUL1DZkS|73.129.42.61|United States|Delaware|Milton|19968|Comcast Cable Communications|Black List: No|Use Type: Residential
91.99.95.238:43185:0ubqq1go37:q5VnfzUVxi|71.115.202.31|United States|New York|Syracuse|13219|Verizon Business|Black List: No|Use Type: Residential
91.99.95.238:43185:64lim5emdg:JwJZnjI6xy|76.155.194.202|United States|Colorado|Denver|80229|Comcast Cable Communications, LLC|Black List: No|Use Type: Residential
91.99.95.238:43185:26p2kh579u:4lhMDtLyCw|98.114.213.68|United States|Pennsylvania|Philadelphia|19152|Verizon Communications|Black List: No|Use Type: Residential
91.99.95.238:43185:tj26i7e8p3:dWLRaOSeT8|173.49.231.127|United States|Pennsylvania|Quakertown|18951|Verizon Business|Black List: No|Use Type: Residential
91.99.95.238:43185:wbl8zmqthm:HYEs93NUo0|75.74.156.34|United States|Florida|Miami|33157|Comcast Cable Communications|Black List: No|Use Type: Residential
91.99.95.238:43185:py8apvl33f:wDZQeiutqR|95.140.247.29|Czechia|South Moravian|Adamov|679 04|ABLE agency, s.r.o.|Black List: No|Use Type: Residential
91.99.95.238:43185:idrsg3aniz:nMWTtBtEm7|98.110.119.65|United States|New Jersey|Williamstown|08094|Verizon Business|Black List: No|Use Type: Residential
91.99.95.238:43185:11yb3rvdnt:SgsfoDABRL|172.58.127.245|United States|Michigan|Warren|48092|T-Mobile USA, Inc.|Black List: No|Use Type: Cellular
89.167.126.207:33329:ulgvi1z7yt:VsZhByoFTa|97.139.43.240|United States|Texas|Houston|77091|Verizon Business|Black List: No|Use Type: Residential
91.99.95.238:43185:2ec4ywa0z9:P2Q3bkN6JK|84.239.31.147|United States|Mississippi|Jackson|39271|Datacamp Limited|Black List: No|Use Type: Residential
91.99.95.238:43185:nnym0l1o2p:gciKTeKkoV|73.96.34.196|United States|Oregon|Portland|97229|Comcast Cable Communications|Black List: No|Use Type: Residential
91.99.95.238:43185:ovmn49a3wr:UPEoQtmu0V|72.87.78.91|United States|Rhode Island|North Providence|02911|Verizon Business|Black List: No|Use Type: Residential
91.99.95.238:43185:mnmhjn5z0i:Ubx2ZgcoWb|76.24.207.170|United States|Massachusetts|Saugus|01906|Comcast Cable Communications, LLC|Black List: No|Use Type: Residential
91.99.95.238:43185:0up2kos119:8TvIQYYfWQ|76.35.62.122|United States|Ohio|Cincinnati|45232|Charter Communications|Black List: No|Use Type: Residential
91.99.95.238:43185:zyxbrwhatq:XCnQ8uzcUs|73.168.55.236|United States|Illinois|Chicago|60617|Comcast Cable Communications|Black List: No|Use Type: Residential
91.99.95.238:43185:4xz96gjmqr:zVVajtEqkC|107.9.145.101|United States|Ohio|Lorain|44052|Charter Communications|Black List: No|Use Type: Residential
91.99.95.238:43185:p7nknjzgzt:SOt8H2CX5a|73.140.238.143|United States|Washington|Kent|98030|Comcast Cable Communications|Black List: No|Use Type: Residential
91.99.95.238:43185:s1cx47gkmg:aQCFOYs7gF|104.52.55.171|United States|California|Hanford|93230|AT&T Enterprises, LLC|Black List: No|Use Type: Residential
91.99.95.238:43185:x0ghfe6ynv:K9PyXXfuWC|81.96.166.69|United Kingdom|England|Flitwick|MK45|Virgin Media Limited|Black List: No|Use Type: Residential
91.99.95.238:43185:zjq0cof92f:saM8YwGALo|151.240.205.147|United States|New York|New York|10118|Cogent Communications|Black List: No|Use Type: Residential
89.167.126.207:33329:q5q0j8yarc:5cuEAP2TTT|77.96.166.17|United Kingdom|England|Oldbury|B68|Virgin Media Limited|Black List: No|Use Type: Residential
89.167.126.207:33329:f1kg9m5ajd:rcivHreAT5|86.163.174.141|United Kingdom|England|Aylesbury|HP19|BT Public Internet Service|Black List: No|Use Type: Residential
89.167.126.207:33329:9gvp0mve7q:tyjS9adMHP|80.76.56.182|United Kingdom|England|London|WC2N|Community Fibre Limited|Black List: No|Use Type: Residential
91.99.95.238:43185:cr0zt3jnob:eebKuBsEMs|194.166.78.42|Austria|Styria|Neumarkt in Steiermark|8820|A1 Telekom Austria AG|Black List: No|Use Type: Residential
91.99.95.238:43185:vznbc1rlio:0ut4nUNjld|185.240.199.78|United Kingdom|England|Manor Park|E7|Community Fibre Limited|Black List: No|Use Type: Residential
91.99.95.238:43185:ack2yz1j8s:6GlICxAEas|93.99.7.66|Czechia|South Moravian|Bílovice nad Svitavou|664 01|Vodafone Czech Republic|Black List: No|Use Type: Residential
89.167.126.207:33329:0gg4m7t5i7:SCFZknR9sF|86.188.104.113|United Kingdom|England|Bournemouth|BH1|BT Public Internet Service|Black List: No|Use Type: Residential
89.167.126.207:33329:oehux7b63n:imZuy4QOVW|185.241.164.40|United Kingdom|England|Stratford|E15|Community Fibre Limited|Black List: No|Use Type: Residential
91.99.95.238:43185:z1sbpqpkxf:n8lVc334ys|185.126.248.178|United Kingdom|Wales|Llantwit Major|CF61|Spectrum Internet Ltd|Black List: No|Use Type: Residential
91.99.95.238:43185:vks3s8f54j:BcmmsGrdJk|185.74.53.38|United Kingdom|England|Glossop|SK13|Full Fibre Limited|Black List: No|Use Type: Residential
91.99.95.238:43185:2787npadsi:KddJunrqvE|47.146.112.129|United States|California|Hemet|92545|Frontier Communications Corporation|Black List: No|Use Type: Residential
91.99.95.238:43185:f7v59c548l:WpXlXVQGJN|94.15.162.187|United Kingdom|England|Doncaster|DN4|Sky UK Limited|Black List: No|Use Type: Residential
89.167.126.207:33329:9xiknwuw7t:oUxxZ0UBZK|81.96.137.223|United Kingdom|England|Scunthorpe|DN16|Virgin Media Limited|Black List: No|Use Type: Residential
89.167.126.207:33329:tqzl324sxq:FIsrA7fo6W|86.158.86.25|United Kingdom|England|City of London|EC4R|BT Public Internet Service|Black List: No|Use Type: Residential
89.167.126.207:33329:h3hl4b7qvj:m5vbhijfoi|168.86.218.61|United Kingdom|England|Norwich|NR16|County Broadband Ltd|Black List: No|Use Type: Residential
89.167.126.207:33329:gkg0qnappt:t0xOTKFpB4|50.29.138.186|United States|Pennsylvania|Tobyhanna|18466|PenTeleData Inc.|Black List: No|Use Type: Residential
89.167.126.207:33329:1dwfva6r30:izuvZsaM3i|71.69.129.143|United States|North Carolina|Wilson|27893|Charter Communications|Black List: No|Use Type: Residential
89.167.126.207:33329:4zcid60tcc:sSuod3oC8z|81.151.128.125|United Kingdom|England|Bristol|BS16|BT Public Internet Service|Black List: No|Use Type: Residential
89.167.126.207:33329:nmybuadebo:2Yc5FsjZqS|173.179.229.63|Canada|Quebec|Dollard-des-Ormeaux|H9B|Le Groupe Videotron Ltee|Black List: No|Use Type: Cellular
89.167.126.207:33329:hb7i6lqk4i:aVtvQEtrgJ|184.145.210.66|Canada|Quebec|Laval|H7H|Bell Canada|Black List: No|Use Type: Residential
91.99.95.238:43185:x9sevx7ir1:AGc1ZAxUNy|205.250.54.77|Canada|British Columbia|Burnaby|V3N|TELUS Communications Inc|Black List: No|Use Type: Residential
91.99.95.238:43185:xx26ybxrvn:UGS1Zhykjh|86.1.235.8|United Kingdom|England|Stanley|DH9|Virgin Media Limited|Black List: No|Use Type: Residential
91.99.95.238:43185:i3ottdbw8h:0zDxLgARnG|2.97.70.49|United Kingdom|England|Camberwell|SE5|TalkTalk|Black List: No|Use Type: Residential
89.167.126.207:33329:fh2ox73d5z:See0wWJ3IO|143.105.205.52|Canada|Newfoundland and Labrador|Saint John's||Space Exploration Technologies Corporation|Black List: No|Use Type: Residential
91.99.95.238:43185:b0az5tfu12:vAsPiT8Y1X|76.67.61.218|Canada|Ontario|Scarborough|M1C|Bell Canada|Black List: No|Use Type: Residential
91.99.95.238:43185:78g9ejsx8x:XmCMp4Sh7n|70.75.176.113|Canada|British Columbia|Cranbrook|V1C|Shaw Communications|Black List: No|Use Type: Residential
91.99.95.238:43185:45v7ezhg75:cuK7YFkMfl|176.24.238.4|United Kingdom|Wales|Newport|NP20|Sky UK Limited|Black List: No|Use Type: Residential
91.99.95.238:43185:uq0ijku39g:7TgV76nRgK|173.238.132.111|Canada|Ontario|St. Catharines|L2S|Cogeco Communications Inc.|Black List: No|Use Type: Residential
91.99.95.238:43185:5kw4yclgji:vhy4aircJb|16.98.28.151|United States|Florida|Lakeland|33801|Charter Communications|Black List: No|Use Type: Residential
91.99.95.238:43185:vf7z52v1he:7jRs33EQwq|86.22.101.10|United Kingdom|England|Abingdon|OX14|Virgin Media|Black List: No|Use Type: Residential
91.99.95.238:43185:zilws760uf:NNqRuwlqWh|24.79.144.83|Canada|Ontario|Thunder Bay|P7A|Shaw Communications|Black List: No|Use Type: Residential
91.99.95.238:43185:zjldnfro7f:7vxUcq8JQq|79.116.225.81|Spain|Andalusia|Torremolinos|29620|Digi Spain Telecom S.L.U.|Black List: No|Use Type: Residential
91.99.95.238:43185:73xyemz1kz:mNek3Zi7Qr|70.53.22.9|Canada|Ontario|Binbrook|L0R|Bell Canada|Black List: No|Use Type: Residential
91.99.95.238:43185:b1p3nkmtfa:vNa2OyzHTh|79.117.183.193|Spain|Andalusia|Motril|18600|Digi Spain Telecom S.L.U.|Black List: No|Use Type: Residential
91.99.95.238:43185:3jpx36li21:u2Ft385dI9|209.55.118.193|United States|Texas|Gainesville|76240|west central wireless|Black List: No|Use Type: Cellular
91.99.95.238:43185:k30dhq5b9g:budTNQ5tla|90.167.61.69|Spain|Catalonia|Rubí|08191|Orange Espagne SA|Black List: No|Use Type: Residential
91.99.95.238:43185:ytxbsbfgek:Q3XOyJgQhn|185.232.183.20|Spain|Castille-La Mancha|Tomelloso|13700|TBS|Black List: No|Use Type: Residential
91.99.95.238:43185:yspchasr8s:jPSRQ6FZSd|62.143.168.82|Germany|North Rhine-Westphalia|Meerbusch|40667|Vodafone|Black List: No|Use Type: Residential
91.99.95.238:43185:7c1rlou3l9:YkDIUWCgCk|81.107.248.228|United Kingdom|England|Dewsbury|WF13|Virgin Media Limited|Black List: No|Use Type: Residential
91.99.95.238:43185:ifcd8p04uq:qvkPZs89fI|47.231.173.144|United States|California|Bakersfield|93311|Charter Communications|Black List: No|Use Type: Residential
91.99.95.238:43185:gzci4m4pdd:A5K6KKrCrN|47.58.10.106|Spain|Cantabria|Santander|39012|Vodafone US Inc.|Black List: No|Use Type: Residential
91.99.95.238:43185:3eacik8jld:UDDqKRWteL|84.71.154.162|United Kingdom|England|Barnet|NW9|Vodafone Limited|Black List: No|Use Type: Residential
91.99.95.238:43185:meh4z1ux46:ZTQbVRUxkl|91.228.241.181|Spain|Andalusia|Puerto Real|11510|TD PR ARLU S.A|Black List: No|Use Type: Residential
91.99.95.238:43185:3k7ckt32sa:i0AGCp201b|185.204.56.85|North Macedonia|Tetovo|Tetovo|1200|Telenet KOM DOO|Black List: No|Use Type: Residential
91.99.95.238:43185:5b71c2j82a:wRyMR6NZiz|73.9.230.99|United States|Illinois|Chicago|60607|Comcast Cable Communications, LLC|Black List: No|Use Type: Residential
91.99.95.238:43185:bzkpgurdsd:c4mRrZv7gP|70.31.211.235|Canada|Quebec|Pierrefonds|H8Y|Bell Canada|Black List: No|Use Type: Residential
91.99.95.238:43185:6pgoz5zoda:mimw49EG3G|185.72.12.131|Spain|Valencia|Petrel|03610|Fibraworld Telecom S.A.U.|Black List: No|Use Type: Residential
91.99.95.238:43185:viy4ognjkw:8QovWjngAv|82.3.252.129|United Kingdom|England|Bournemouth|BH6|Virgin Media|Black List: No|Use Type: Residential
91.99.95.238:43185:gs3lte7w74:XmGWfwYyGa|94.11.114.76|United Kingdom|England|Sheffield|S5|Sky UK Limited|Black List: No|Use Type: Residential
91.99.95.238:43185:zb9ktykwfj:Z9lIOks8wu|24.79.204.242|Canada|Manitoba|Winnipeg|R2X|Shaw Communications|Black List: No|Use Type: Residential
91.99.95.238:43185:9jquet8t1j:8mwDLP47RB|81.99.226.87|United Kingdom|England|Norwich|NR3|Virgin Media Limited|Black List: No|Use Type: Residential
91.99.95.238:43185:alu7uprcwt:tCpaeUEVk5|172.218.245.153|Canada|British Columbia|Vancouver|V5R|TELUS Communications Inc|Black List: No|Use Type: Residential
91.99.95.238:43185:7mvpymjvta:emveyMJFF8|104.251.37.137|Canada|Quebec|Montreal|H2A|Bravo Telecom|Black List: No|Use Type: Residential
91.99.95.238:43185:neho9sgz2y:eJWEL4Ug35|73.41.29.34|United States|California|Lodi|95240|Comcast Cable Communications|Black List: No|Use Type: Residential
91.99.95.238:43185:b7zsja7nz4:TYbJOGhxkt|90.163.78.121|Spain|Andalusia|Jerez de la Frontera|11408|UNI2|Black List: No|Use Type: Residential
89.167.126.207:33329:1s3c453vp0:a4rvg5jtBY|92.209.211.75|Germany|Baden-Wurttemberg|Bietigheim-Bissingen|74321|Vodafone GmbH|Black List: No|Use Type: Residential
91.99.95.238:43185:xcx8dafnbi:aiIiQMKyQu|77.97.50.111|United Kingdom|England|Bristol|BS16|Virgin Media Limited|Black List: No|Use Type: Residential
91.99.95.238:43185:d5ascxlgs8:iWOQvEHjHb|172.59.213.166|United States|New Jersey|Newark|07107|T-Mobile USA, Inc.|Black List: No|Use Type: Cellular
91.99.95.238:43185:lndp5x8ir5:caX7uSdjTX|79.116.235.205|Spain|Andalusia|Jaén|23002|Digi Spain Telecom S.L.U.|Black List: No|Use Type: Residential
91.99.95.238:43185:8rvgukocpj:hpzDn7ds7w|50.70.46.130|Canada|Saskatchewan|Moose Jaw|S6H|Shaw Communications|Black List: No|Use Type: Residential
91.99.95.238:43185:2ghay40b16:DEWLgQgkc9|66.143.193.0|United States|Texas|Fort Worth|76119|AT&T Enterprises, LLC|Black List: No|Use Type: Residential
91.99.95.238:43185:8pol0niv8g:YCOqQfjnHL|82.37.67.210|United Kingdom|England|Bradford|BD10|Virgin Media Limited|Black List: No|Use Type: Residential
91.99.95.238:43185:y06vlxpbgf:NrLcV6lSbb|172.59.222.217|United States|New Jersey|Newark|07107|T-Mobile USA, Inc.|Black List: No|Use Type: Cellular
89.167.126.207:33329:5swf18hx1h:r7qGRejqqd|88.97.246.152|United Kingdom|Wales|Swansea|SA6|YouFibre Limited|Black List: No|Use Type: Residential
91.99.95.238:43185:px5optcwpx:IggT2MbDTW|90.54.24.124|France|Nouvelle-Aquitaine|Idron|64320|Orange|Black List: No|Use Type: Residential
91.99.95.238:43185:fjab176gib:fLr7np9VAY|86.13.208.222|United Kingdom|England|Birmingham|B38|Virgin Media Limited|Black List: No|Use Type: Residential
91.99.95.238:43185:lcvymo3zii:HGItNgq5Qj|176.100.224.179|Spain|Murcia|Yecla|30510|Fibraworld Telecom S.A.U.|Black List: No|Use Type: Residential
91.99.95.238:43185:7zxrcuu7ae:3YCAIvdIvp|84.18.245.239|United Kingdom|England|Sandhurst|GU47|Full Fibre Limited|Black List: No|Use Type: Residential
91.99.95.238:43185:73l88ct9um:XpqyJZja3N|195.180.32.64|United Kingdom|England|Milton Keynes|MK17|Gigaclear Limited|Black List: No|Use Type: Residential
91.99.95.238:43185:nvuxdpsmpd:ahudVSEXUe|45.66.127.196|Greece|Central Macedonia|Serres||ERMIS|Black List: No|Use Type: Residential
91.99.95.238:43185:0vvict4avh:OnLKy9QOs5|72.28.214.236|United States|Florida|Miami Beach|33139|Atlantic Broadband Finance|Black List: No|Use Type: Residential
91.99.95.238:43185:r2hpx278t9:zpPDBX0kXT|88.98.127.226|Spain|Valencia|Callosa de Segura|03360|AVATEL TELECOM, SA|Black List: No|Use Type: Residential
91.99.95.238:43185:9xouu6qwrh:CovQO4OMH4|149.34.146.224|United Kingdom|England|Harrow|HA2|Community Fibre Limited|Black List: No|Use Type: Residential
91.99.95.238:43185:yj2h7g1fhk:g0Uva8gqxo|92.237.100.83|United Kingdom|England|Plymouth|PL4|Virgin Media|Black List: No|Use Type: Residential
89.167.126.207:33329:8mzhsrcqf2:NAYRy92ExT|142.59.22.37|Canada|Alberta|Drayton Valley|T7A|TELUS Communications Inc.|Black List: No|Use Type: Residential
89.167.126.207:33329:j9c3dmgrvt:rnDFslr069|109.181.222.101|United Kingdom|England|Stanley|DH9|EE Limited|Black List: No|Use Type: Residential
91.99.95.238:43185:t70s90l4ru:NRBnFkuPNs|77.73.44.54|Spain|Murcia|Lorca|30800|Tele Lorca Sol S.L.|Black List: No|Use Type: Residential
91.99.95.238:43185:41lqif8yoz:j4zlkqge9k|179.5.179.90|El Salvador|San Salvador Department|San Salvador||TELECOMUNICACIONES DE GUATEMALA, SOCIEDAD ANONIMA|Black List: No|Use Type: Residential
91.99.95.238:43185:rohqtugwuq:ywG7nX2A3F|75.177.67.44|United States|North Carolina|Reidsville|27320|Charter Communications|Black List: No|Use Type: Residential
91.99.95.238:43185:dcqmrijwxr:LJkhzoqkKl|188.246.85.53|Bosnia and Herzegovina|Republika Srpska|Banja Luka||Blicnet d.o.o. Banja Luka|Black List: No|Use Type: Residential
91.99.95.238:43185:m4wnpdzgca:39NwG9AEpa|108.60.182.213|Canada|Saskatchewan|Regina|S4V|Saskatchewan Telecommunications|Black List: No|Use Type: Residential
91.99.95.238:43185:xk8dx3j73g:Sip13jAuzF|24.215.65.81|Canada|Nova Scotia|Middle Sackville|B4E|EastLink|Black List: No|Use Type: Residential
91.99.95.238:43185:0p99agqmzq:Yki73iT9aB|38.86.4.81|Canada|Ontario|Halton Hills|L7G|OXIO|Black List: No|Use Type: Residential
91.99.95.238:43185:f0wp224xkg:J40FjDYVW3|194.4.69.247|Ukraine|Chernihiv|Pryluky|17510|Granat Ukraine LLC|Black List: No|Use Type: Residential
91.99.95.238:43185:orbut424jy:F2yPna8wTt|188.26.193.222|Spain|Valencia|Alcoy|03801|Digi Spain Telecom S.L.U.|Black List: No|Use Type: Residential
89.167.126.207:33329:7hozhpdqzh:IdRi1scfws|174.88.71.64|Canada|Ontario|Burlington|L7P|Bell Canada|Black List: No|Use Type: Residential
89.167.126.207:33329:ep8q1yb8zk:O0svaUplJA|51.190.143.120|United Kingdom|England|Poplar|E14|Sky UK Limited|Black List: No|Use Type: Residential
91.99.95.238:43185:4slp8u55fs:c2ibQ8qrF9|86.16.169.15|United Kingdom|England|Bradford|BD9|Virgin Media Limited|Black List: No|Use Type: Residential
89.167.126.207:33329:8g5196zk72:M2nA8GX2fk|89.244.126.195|Germany|Baden-Wurttemberg|Backnang|71522|Versatel Deutschland|Black List: No|Use Type: Residential
91.99.95.238:43185:xm3fiwprke:aB0HjU0NDJ|24.122.60.194|Canada|Quebec|Saint-Hyacinthe|J2S|Cogeco Connexion inc|Black List: No|Use Type: Residential
91.99.95.238:43185:n5zzpsi275:qgtHsbrAXu|99.226.146.26|Canada|Ontario|St. Thomas|N5R|Rogers Communications Canada Inc.|Black List: No|Use Type: Residential
91.99.95.238:43185:q12l4odpxg:5VMpdEYl9b|79.116.228.135|Spain|Galicia|Lugo|27002|Digi Spain Telecom S.L.U.|Black List: No|Use Type: Residential
91.99.95.238:43185:uuo6xdy56p:zCKdWykux6|83.36.226.43|Spain|Extremadura|Villafranca de los Barros|06220|Telefonica de Espana SAU|Black List: No|Use Type: Residential
91.99.95.238:43185:v927mig922:RWiFcam5D8|141.195.140.114|United Kingdom|England|Loudwater|HP10|AllPoints Fibre Limited|Black List: No|Use Type: Residential
89.167.126.207:33329:n8zcm1uuah:z6yzgIz5qx|24.64.95.0|Canada|Alberta|Medicine Hat|T1B|Shaw Communications|Black List: No|Use Type: Residential
91.99.95.238:43185:r7blee7wil:1e9jSRYrRB|142.161.81.248|Canada|Manitoba|Winnipeg|R3G|Bell Canada|Black List: No|Use Type: Residential
91.99.95.238:43185:hwd1fj5bp6:znoch9c7UF|69.156.97.53|Canada|Ontario|North York|M3H|Bell Canada|Black List: No|Use Type: Residential
91.99.95.238:43185:63qr5e0t8h:uoslFIkV7m|76.25.36.146|United States|Colorado|Fort Collins|80526|Comcast Cable Communications, LLC|Black List: No|Use Type: Residential
91.99.95.238:43185:5pkxzpx6lm:qkkO4mhj1q|89.205.63.76|North Macedonia|Grad Skopje|Krušopek||MEGANET|Black List: No|Use Type: Residential
91.99.95.238:43185:7xaiadqb7r:XGjbr4uhSl|185.156.14.149|Albania|Tirana|Tirana||ONE ALBANIA SH.A.|Black List: No|Use Type: Residential
89.167.126.207:33329:s8v80wraa8:ODA6HmbVPO|90.210.208.99|United Kingdom|England|Norwich|NR12|Sky UK Limited|Black List: No|Use Type: Residential
91.99.95.238:43185:4isl11ymp7:pgPT5FH665|64.98.64.72|United States|Colorado|Centennial|80122|Ting Fiber Inc.|Black List: No|Use Type: Residential
91.99.95.238:43185:dhf5uye7bg:Wzjowb7Ql8|84.123.224.170|Spain|Madrid|Madrid|28019|Ono|Black List: No|Use Type: Residential
91.99.95.238:43185:mn1srnmf2a:kPBmyQBnjt|92.31.5.46|United Kingdom|England|Dewsbury|WF13|TalkTalk|Black List: No|Use Type: Residential
91.99.95.238:43185:31gace1q3o:qIM7qOlkf7|188.31.71.236|United Kingdom|England|Wolverhampton|WV2|Hutchison 3G UK Ltd|Black List: No|Use Type: Residential
91.99.95.238:43185:r4by7q7h4v:FDN9WqtUFR|46.176.98.172|Greece|Attica|Athens||Hellas On Line S.A.|Black List: No|Use Type: Residential
91.99.95.238:43185:83kuziz9kd:69zn87JUtV|80.6.193.205|United Kingdom|England|Derby|DE23|Virgin Media|Black List: No|Use Type: Residential
91.99.95.238:43185:u30iz00ww0:szeQBNcekv|216.181.189.241|Canada|Ontario|Brampton|L6V|Primus Telecommunications Canada Inc.|Black List: No|Use Type: Residential
91.99.95.238:43185:0aqu4oc7ql:SjzVgOmHbN|142.118.168.199|Canada|Quebec|Montreal|H3T|Bell Canada|Black List: No|Use Type: Residential
91.99.95.238:43185:05ifturrkw:r5iu8MICDu|129.222.157.194|Canada|Saskatchewan|Regina||Space Exploration Technologies Corporation|Black List: No|Use Type: Residential
91.99.95.238:43185:i4hd119ths:IsBoOnG95P|88.97.184.160|United Kingdom|England|Manchester|M14|Zen Internet Ltd|Black List: No|Use Type: Residential
91.99.95.238:43185:tjs8hdg3ls:UlwIKJrtOR|184.147.150.166|Canada|Ontario|Ottawa|K1K|Bell Canada|Black List: No|Use Type: Residential
91.99.95.238:43185:q6xc1q3xfe:JOpSKq2sn7|190.80.24.164|Guyana|Demerara-Mahaica|Georgetown||Guyana Telephone & Telegraph Co.|Black List: No|Use Type: Residential
91.99.95.238:43185:2ewe5gxm7l:UJxdEjfq0b|178.239.254.171|Spain|Castille-La Mancha|Mota del Cuervo|16630|TVHORADADACONCISA|Black List: No|Use Type: Residential
89.167.126.207:33329:mat1l6sul6:2CNGL9qlss|156.57.186.164|Canada|Nova Scotia|Chester|B0J|Bell Canada|Black List: No|Use Type: Residential
91.99.95.238:43185:xjii0ciq5l:JNgzoSxF4P|38.85.185.50|Canada|Ontario|Windsor|N8T|OXIO|Black List: No|Use Type: Residential
91.99.95.238:43185:5s38ombte6:4dj97aN4tP|24.72.14.34|Canada|Saskatchewan|Regina|S4R|Access Communications  Co-operative Limited|Black List: No|Use Type: Residential
91.99.95.238:43185:tiaq8lv3qd:xR0tlRSMoo|142.180.143.156|Canada|Prince Edward Island|Souris|C0A|Bell Canada|Black List: No|Use Type: Residential
91.99.95.238:43185:jq8qdyx44k:cAN4EUk5MS|104.157.81.124|Canada|Alberta|Lethbridge|T1J|TELUS Communications Inc|Black List: No|Use Type: Residential
89.167.126.207:33329:uxvvmn7576:zlCUzDvHPP|75.157.197.51|Canada|British Columbia|Vancouver|V6G|TELUS Communications Inc|Black List: No|Use Type: Residential
89.167.126.207:33329:kz1m2sraa9:rPDZJ7ckTd|156.57.249.170|Canada|Nova Scotia|New Waterford|B1H|Bell Canada|Black List: No|Use Type: Residential
89.167.126.207:33329:yaccsj5gtv:ijehc6xHhc|67.71.138.155|Canada|Ontario|Brampton|L7A|Bell Canada|Black List: No|Use Type: Residential
